*
*
*
*                       LINUX           Mon Aug 26 08:09:59 2024
*
*
*
*  PROGRAM  advgen
*
*  Name           : advgen - Quantus - (64-bit)
*  Version        : 23.1.1-p051
*  Build Date     : Thu Feb 15 21:11:17 PST 2024
*
*  HSPICE LIBRARY
*
* GLOBAL_TEMPERATURE 27
*  OPERATING_TEMPERATURE 27
*  QRC_TECH_DIR /pkg/xfab2/XKIT/xh018/cadence/v9_0/QRC_pvs/v9_0_1/XH018_1143/QRC-Typ 
*
*!LENGTH_UNITS METERS
*
*
*
*
*       SUBCIRCUIT DEFINITIONS
*
.SUBCKT MOSVC3 G NW SB
.ENDS
*

*
.SUBCKT por2 BG_REF BIAS GNDA POR_OUT_L VDDA
*
*
*  caps2d version: 10
*
*       SUBCIRCUIT CALLS
*
XXC0 DEL#16 GNDA GNDA MOSVC3
+ w=5e-05 l=5e-05 model=mosvc3
XXC0@6 DEL#8 GNDA GNDA MOSVC3
+ w=5e-05 l=5e-05 model=mosvc3
XXC0@5 DEL#45 GNDA GNDA MOSVC3
+ w=5e-05 l=5e-05 model=mosvc3
XXC0@8 DEL#37 GNDA GNDA MOSVC3
+ w=5e-05 l=5e-05 model=mosvc3
XXC0@7 DEL#61 GNDA GNDA MOSVC3
+ w=5e-05 l=5e-05 model=mosvc3
XXC0@2 DEL#53 GNDA GNDA MOSVC3
+ w=5e-05 l=5e-05 model=mosvc3
XXC0@1 DEL#77 GNDA GNDA MOSVC3
+ w=5e-05 l=5e-05 model=mosvc3
XXC0@4 DEL#69 GNDA GNDA MOSVC3
+ w=5e-05 l=5e-05 model=mosvc3
XXC0@3 DEL#93 GNDA GNDA MOSVC3
+ w=5e-05 l=5e-05 model=mosvc3
XXC0@9 DEL#85 GNDA GNDA MOSVC3
+ w=5e-05 l=5e-05 model=mosvc3
*
*       TRANSISTOR CARDS
*
*
MMM20	GNDA#141	GNDA#11	GNDA#134	GNDA	ne3	L=5e-06
+ W=1e-05
+ AD=4.8e-12	AS=4.8e-12	PD=2.096e-05	PS=2.096e-05
+ NRD=0.0173	NRS=0.0173
MMM20@2	GNDA#128	GNDA#8	GNDA#122	GNDA	ne3	L=5e-06
+ W=1e-05
+ AD=4.8e-12	AS=4.8e-12	PD=2.096e-05	PS=2.096e-05
+ NRD=0.0173	NRS=0.0173
MMM20@1	GNDA#148	GNDA#14	GNDA#105	GNDA	ne3	L=5e-06
+ W=1e-05
+ AD=4.8e-12	AS=4.8e-12	PD=2.096e-05	PS=2.096e-05
+ NRD=0.0173	NRS=0.0173
MMM19@6	BIAS#136	BIAS#32	GNDA#100	GNDA	ne3	L=5e-06
+ W=1e-05
+ AD=4.8e-12	AS=4.8e-12	PD=2.096e-05	PS=2.096e-05
+ NRD=0.0173	NRS=0.0173
MMM19@4	BIAS#121	BIAS#26	GNDA#90	GNDA	ne3	L=5e-06
+ W=1e-05
+ AD=4.8e-12	AS=4.8e-12	PD=2.096e-05	PS=2.096e-05
+ NRD=0.0173	NRS=0.0173
MMM19@8	BIAS#101	BIAS#20	GNDA#80	GNDA	ne3	L=5e-06
+ W=1e-05
+ AD=4.8e-12	AS=4.8e-12	PD=2.096e-05	PS=2.096e-05
+ NRD=0.0173	NRS=0.0173
MMM19@9	BIAS#126	BIAS#29	GNDA#95	GNDA	ne3	L=5e-06
+ W=1e-05
+ AD=4.8e-12	AS=4.8e-12	PD=2.096e-05	PS=2.096e-05
+ NRD=0.0173	NRS=0.0173
MMM19	BIAS#106	BIAS#23	GNDA#85	GNDA	ne3	L=5e-06
+ W=1e-05
+ AD=4.8e-12	AS=4.8e-12	PD=2.096e-05	PS=2.096e-05
+ NRD=0.0173	NRS=0.0173
MMM19@3	BIAS#86	BIAS#14	GNDA#70	GNDA	ne3	L=5e-06
+ W=1e-05
+ AD=4.8e-12	AS=4.8e-12	PD=2.096e-05	PS=2.096e-05
+ NRD=0.0173	NRS=0.0173
MMM19@7	BIAS#66	BIAS#8	GNDA#60	GNDA	ne3	L=5e-06
+ W=1e-05
+ AD=4.8e-12	AS=4.8e-12	PD=2.096e-05	PS=2.096e-05
+ NRD=0.0173	NRS=0.0173
MMM18	net1#89	BIAS#17	GNDA#75	GNDA	ne3	L=5e-06
+ W=1e-05
+ AD=4.8e-12	AS=4.8e-12	PD=2.096e-05	PS=2.096e-05
+ NRD=0.0173	NRS=0.0173
MMM19@5	BIAS#71	BIAS#11	GNDA#65	GNDA	ne3	L=5e-06
+ W=1e-05
+ AD=4.8e-12	AS=4.8e-12	PD=2.096e-05	PS=2.096e-05
+ NRD=0.0173	NRS=0.0173
MMM19@1	BIAS#46	BIAS#2	GNDA#50	GNDA	ne3	L=5e-06
+ W=1e-05
+ AD=4.8e-12	AS=4.8e-12	PD=2.096e-05	PS=2.096e-05
+ NRD=0.0173	NRS=0.0173
MMM20@3	GNDA#40	GNDA#2	GNDA#26	GNDA	ne3	L=5e-06
+ W=1e-05
+ AD=4.8e-12	AS=4.8e-12	PD=2.096e-05	PS=2.096e-05
+ NRD=0.0173	NRS=0.0173
MMM19@2	BIAS#51	BIAS#5	GNDA#55	GNDA	ne3	L=5e-06
+ W=1e-05
+ AD=4.8e-12	AS=4.8e-12	PD=2.096e-05	PS=2.096e-05
+ NRD=0.0173	NRS=0.0173
MMM20@4	GNDA#45	GNDA#5	GNDA#33	GNDA	ne3	L=5e-06
+ W=1e-05
+ AD=4.8e-12	AS=4.8e-12	PD=2.096e-05	PS=2.096e-05
+ NRD=0.0173	NRS=0.0173
MMM17	net10#25	net10#5	GNDA#252	GNDA	ne3	L=5e-06
+ W=5e-06
+ AD=2.4e-12	AS=2.4e-12	PD=1.096e-05	PS=1.096e-05
+ NRD=0.0346	NRS=0.0346
MMM16	A#13	net10#2	GNDA#256	GNDA	ne3	L=5e-06
+ W=5e-06
+ AD=2.4e-12	AS=2.4e-12	PD=1.096e-05	PS=1.096e-05
+ NRD=0.0346	NRS=0.0346
MMM7@1	DEL#123	A#2	GNDA#272	GNDA	ne3	L=3.5e-07
+ W=5e-06
+ AD=1.35e-12	AS=2.4e-12	PD=5.54e-06	PS=1.096e-05
+ NRD=0.0346	NRS=0.0346
MMM7	DEL#123	A#5	GNDA#248	GNDA	ne3	L=3.5e-07
+ W=5e-06
+ AD=1.35e-12	AS=2.4e-12	PD=5.54e-06	PS=1.096e-05
+ NRD=0.0346	NRS=0.0346
MXI0/MM1	XI0/net31#32	DEL#22	XI0/net39#5	GNDA	ne3
+ L=3.5e-07	W=7.6e-07
+ AD=3.648e-13	AS=2.15279e-13	PD=2.48e-06	PS=1.40142e-06
+ NRD=0.241582	NRS=0.235553
MXI0/MM0	XI0/net39#5	DEL#23	GNDA#239	GNDA	ne3
+ L=3.5e-07	W=6.5e-07
+ AD=1.84121e-13	AS=5.1e-13	PD=1.19858e-06	PS=3.09e-06
+ NRD=0.236526	NRS=0.761514
MXI0/MM5	VDDA#277	XI0/net31#24	XI0/net39	GNDA	ne3
+ L=3.5e-07	W=8.9e-07
+ AD=4.628e-13	AS=5.162e-13	PD=2.82e-06	PS=2.94e-06
+ NRD=0.363867	NRS=0.376706
MXI0/MM7@3	POR_OUT_L#2	XI0/net31#20	GNDA#232	GNDA	ne3
+ L=3.5e-07	W=6.6e-07
+ AD=1.782e-13	AS=5.8405e-13	PD=1.2e-06	PS=3.57e-06
+ NRD=0.306771	NRS=0.20185
MXI0/MM7@2	POR_OUT_L#2	XI0/net31#16	GNDA#229	GNDA	ne3
+ L=3.5e-07	W=6.6e-07
+ AD=1.782e-13	AS=3.2115e-13	PD=1.2e-06	PS=1.835e-06
+ NRD=0.306771	NRS=0.322727
MXI0/MM7	POR_OUT_L#8	XI0/net31#12	GNDA#229	GNDA	ne3
+ L=3.5e-07	W=6.6e-07
+ AD=1.782e-13	AS=3.2115e-13	PD=1.2e-06	PS=1.835e-06
+ NRD=0.306771	NRS=0.322727
MXI0/MM7@1	POR_OUT_L#8	XI0/net31#9	GNDA#196	GNDA	ne3
+ L=3.5e-07	W=6.6e-07
+ AD=1.782e-13	AS=6.249e-13	PD=1.2e-06	PS=3.55e-06
+ NRD=0.306771	NRS=0.343682
MMM21@2	VDDA#244	VDDA#17	VDDA#214	VDDA	pe3	L=5e-06
+ W=1e-05
+ AD=4.8e-12	AS=4.8e-12	PD=2.096e-05	PS=2.096e-05
+ NRD=0.0173	NRS=0.0173
MMM21@3	VDDA#204	VDDA#11	VDDA#179	VDDA	pe3	L=5e-06
+ W=1e-05
+ AD=4.8e-12	AS=4.8e-12	PD=2.096e-05	PS=2.096e-05
+ NRD=0.0173	NRS=0.0173
MMM21@4	VDDA#249	VDDA#20	VDDA#219	VDDA	pe3	L=5e-06
+ W=1e-05
+ AD=4.8e-12	AS=4.8e-12	PD=2.096e-05	PS=2.096e-05
+ NRD=0.0173	NRS=0.0173
MMM21	VDDA#209	VDDA#14	VDDA#184	VDDA	pe3	L=5e-06
+ W=1e-05
+ AD=4.8e-12	AS=4.8e-12	PD=2.096e-05	PS=2.096e-05
+ NRD=0.0173	NRS=0.0173
MMM21@6	VDDA#254	VDDA#23	VDDA#224	VDDA	pe3	L=5e-06
+ W=1e-05
+ AD=4.8e-12	AS=4.8e-12	PD=2.096e-05	PS=2.096e-05
+ NRD=0.0173	NRS=0.0173
MMM14@3	net1#229	net1#65	VDDA#189	VDDA	pe3	L=5e-06
+ W=1e-05
+ AD=4.8e-12	AS=4.8e-12	PD=2.096e-05	PS=2.096e-05
+ NRD=0.0173	NRS=0.0173
MMM12@4	net9#43	net1#56	VDDA#164	VDDA	pe3	L=5e-06
+ W=1e-05
+ AD=4.8e-12	AS=4.8e-12	PD=2.096e-05	PS=2.096e-05
+ NRD=0.0173	NRS=0.0173
MMM14@9	net1#194	net1#47	VDDA#149	VDDA	pe3	L=5e-06
+ W=1e-05
+ AD=4.8e-12	AS=4.8e-12	PD=2.096e-05	PS=2.096e-05
+ NRD=0.0173	NRS=0.0173
MMM14@5	net1#219	net1#59	VDDA#169	VDDA	pe3	L=5e-06
+ W=1e-05
+ AD=4.8e-12	AS=4.8e-12	PD=2.096e-05	PS=2.096e-05
+ NRD=0.0173	NRS=0.0173
MMM1	DEL#119	net1#50	VDDA#154	VDDA	pe3	L=5e-06
+ W=1e-05
+ AD=4.8e-12	AS=4.8e-12	PD=2.096e-05	PS=2.096e-05
+ NRD=0.0173	NRS=0.0173
MMM12@6	net9#48	net1#62	VDDA#174	VDDA	pe3	L=5e-06
+ W=1e-05
+ AD=4.8e-12	AS=4.8e-12	PD=2.096e-05	PS=2.096e-05
+ NRD=0.0173	NRS=0.0173
MMM14@1	net1#199	net1#53	VDDA#159	VDDA	pe3	L=5e-06
+ W=1e-05
+ AD=4.8e-12	AS=4.8e-12	PD=2.096e-05	PS=2.096e-05
+ NRD=0.0173	NRS=0.0173
MMM12@5	net9#33	net1#38	VDDA#134	VDDA	pe3	L=5e-06
+ W=1e-05
+ AD=4.8e-12	AS=4.8e-12	PD=2.096e-05	PS=2.096e-05
+ NRD=0.0173	NRS=0.0173
MMM14	net1#149	net1#29	VDDA#119	VDDA	pe3	L=5e-06
+ W=1e-05
+ AD=4.8e-12	AS=4.8e-12	PD=2.096e-05	PS=2.096e-05
+ NRD=0.0173	NRS=0.0173
MMM14@4	net1#174	net1#41	VDDA#139	VDDA	pe3	L=5e-06
+ W=1e-05
+ AD=4.8e-12	AS=4.8e-12	PD=2.096e-05	PS=2.096e-05
+ NRD=0.0173	NRS=0.0173
MMM12@2	net9#28	net1#32	VDDA#124	VDDA	pe3	L=5e-06
+ W=1e-05
+ AD=4.8e-12	AS=4.8e-12	PD=2.096e-05	PS=2.096e-05
+ NRD=0.0173	NRS=0.0173
MMM12@9	net9#38	net1#44	VDDA#144	VDDA	pe3	L=5e-06
+ W=1e-05
+ AD=4.8e-12	AS=4.8e-12	PD=2.096e-05	PS=2.096e-05
+ NRD=0.0173	NRS=0.0173
MMM14@2	net1#154	net1#35	VDDA#129	VDDA	pe3	L=5e-06
+ W=1e-05
+ AD=4.8e-12	AS=4.8e-12	PD=2.096e-05	PS=2.096e-05
+ NRD=0.0173	NRS=0.0173
MMM12@7	net9#18	net1#20	VDDA#104	VDDA	pe3	L=5e-06
+ W=1e-05
+ AD=4.8e-12	AS=4.8e-12	PD=2.096e-05	PS=2.096e-05
+ NRD=0.0173	NRS=0.0173
MMM14@6	net1#109	net1#11	VDDA#89	VDDA	pe3	L=5e-06
+ W=1e-05
+ AD=4.8e-12	AS=4.8e-12	PD=2.096e-05	PS=2.096e-05
+ NRD=0.0173	NRS=0.0173
MMM1@1	DEL#96	net1#23	VDDA#109	VDDA	pe3	L=5e-06
+ W=1e-05
+ AD=4.8e-12	AS=4.8e-12	PD=2.096e-05	PS=2.096e-05
+ NRD=0.0173	NRS=0.0173
MMM12@3	net9#13	net1#14	VDDA#94	VDDA	pe3	L=5e-06
+ W=1e-05
+ AD=4.8e-12	AS=4.8e-12	PD=2.096e-05	PS=2.096e-05
+ NRD=0.0173	NRS=0.0173
MMM12@1	net9#23	net1#26	VDDA#114	VDDA	pe3	L=5e-06
+ W=1e-05
+ AD=4.8e-12	AS=4.8e-12	PD=2.096e-05	PS=2.096e-05
+ NRD=0.0173	NRS=0.0173
MMM14@7	net1#114	net1#17	VDDA#99	VDDA	pe3	L=5e-06
+ W=1e-05
+ AD=4.8e-12	AS=4.8e-12	PD=2.096e-05	PS=2.096e-05
+ NRD=0.0173	NRS=0.0173
MMM12	net9#3	net1#2	VDDA#74	VDDA	pe3	L=5e-06	W=1e-05
+ AD=4.8e-12	AS=4.8e-12	PD=2.096e-05	PS=2.096e-05
+ NRD=0.0173	NRS=0.0173
MMM21@1	VDDA#59	VDDA#2	VDDA#29	VDDA	pe3	L=5e-06
+ W=1e-05
+ AD=4.8e-12	AS=4.8e-12	PD=2.096e-05	PS=2.096e-05
+ NRD=0.0173	NRS=0.0173
MMM14@8	net1#84	net1#5	VDDA#79	VDDA	pe3	L=5e-06
+ W=1e-05
+ AD=4.8e-12	AS=4.8e-12	PD=2.096e-05	PS=2.096e-05
+ NRD=0.0173	NRS=0.0173
MMM21@5	VDDA#64	VDDA#5	VDDA#34	VDDA	pe3	L=5e-06
+ W=1e-05
+ AD=4.8e-12	AS=4.8e-12	PD=2.096e-05	PS=2.096e-05
+ NRD=0.0173	NRS=0.0173
MMM12@8	net9#8	net1#8	VDDA#84	VDDA	pe3	L=5e-06	W=1e-05
+ AD=4.8e-12	AS=4.8e-12	PD=2.096e-05	PS=2.096e-05
+ NRD=0.0173	NRS=0.0173
MMM21@7	VDDA#69	VDDA#8	VDDA#39	VDDA	pe3	L=5e-06
+ W=1e-05
+ AD=4.8e-12	AS=4.8e-12	PD=2.096e-05	PS=2.096e-05
+ NRD=0.0173	NRS=0.0173
MMM15	A#9	C#2	net9#57	VDDA	pe3	L=5e-07	W=4e-06
+ AD=1.92e-12	AS=1.92e-12	PD=8.96e-06	PS=8.96e-06
+ NRD=0.04325	NRS=0.04325
MMM13	net10#9	BG_REF#2	net9#53	VDDA	pe3	L=5e-07
+ W=4e-06
+ AD=1.92e-12	AS=1.92e-12	PD=8.96e-06	PS=8.96e-06
+ NRD=0.04325	NRS=0.04325
MXI0/MM2	XI0/net31#36	DEL#27	XI0/net14#4	VDDA	pe3	L=3e-07
+ W=1.41e-06
+ AD=7.1205e-13	AS=4.21161e-13	PD=3.83e-06	PS=2.04348e-06
+ NRD=0.402537	NRS=0.402537
MXI0/MM3	XI0/net14#4	DEL#18	VDDA#293	VDDA	pe3	L=3e-07
+ W=1.35e-06
+ AD=4.03239e-13	AS=9.5195e-13	PD=1.95652e-06	PS=4.66e-06
+ NRD=0.393476	NRS=0.373894
MXI0/MM4	GNDA#236	XI0/net31#26	XI0/net14#2	VDDA	pe3
+ L=3.5e-07	W=1.41e-06
+ AD=6.768e-13	AS=8.178e-13	PD=3.78e-06	PS=3.98e-06
+ NRD=0.384807	NRS=0.455729
MXI0/MM6@3	POR_OUT_L#5	XI0/net31#22	VDDA#272	VDDA	pe3
+ L=3e-07	W=1.41e-06
+ AD=4.1595e-13	AS=9.5945e-13	PD=2e-06	PS=4.66e-06
+ NRD=0.402537	NRS=0.146781
MXI0/MM6	POR_OUT_L#5	XI0/net31#18	VDDA#281	VDDA	pe3
+ L=3e-07	W=1.41e-06
+ AD=4.1595e-13	AS=4.1765e-13	PD=2e-06	PS=2.01e-06
+ NRD=0.402537	NRS=0.409457
MXI0/MM6@1	POR_OUT_L#10	XI0/net31#14	VDDA#281	VDDA	pe3
+ L=3e-07	W=1.41e-06
+ AD=4.1595e-13	AS=4.1765e-13	PD=2e-06	PS=2.01e-06
+ NRD=0.402537	NRS=0.409457
MXI0/MM6@2	POR_OUT_L#10	XI0/net31#2	VDDA#289	VDDA	pe3
+ L=3e-07	W=1.41e-06
+ AD=4.1595e-13	AS=9.8585e-13	PD=2e-06	PS=4.69e-06
+ NRD=0.402537	NRS=0.382286
*
*
*       CANONICAL RESISTOR AND CAP/DIODE CARDS
*
RRR1	VDDA#25	C#4	rpp1k1_3 	L=0.00411438	W=4e-06
+ $SUB=GNDA 
RRR2	C#6	GNDA#16	rpp1k1_3 	L=0.00283888	W=4e-06
+ $SUB=GNDA 
*
*       PARASITIC RESISTOR AND CAP/DIODE CARDS
*
Rd1	DEL#228	DEL#235	1.446000	$MET3	$L=6.084e-05
+ $W=2.96e-06	$X=10.035 $Y=127.115
Rd2	GNDA#349	GNDA#337	1.446000	$MET3	$L=6.084e-05
+ $W=2.96e-06	$X=13.315 $Y=72.555
Rd5	BIAS	BIAS#158	0.504219	$MET3	$L=1.3355e-05
+ $W=1.96e-06	$X=15.2475 $Y=165.76
Rd6	BIAS#158	BIAS#165	0.565949	$MET3	$L=1.499e-05
+ $W=1.96e-06	$X=15.255 $Y=152.405
Rd8	GNDA#353	GNDA#290	0.524041	$MET3	$L=1.388e-05
+ $W=1.96e-06	$X=17.595 $Y=161.185
Rd9	GNDA#290	GNDA#211	0.565949	$MET3	$L=1.499e-05
+ $W=1.96e-06	$X=17.595 $Y=154.245
Rd12	net9#86	net9#88	0.893069	$MET3	$L=1.762e-05
+ $W=1.46e-06	$X=19.555 $Y=230.035
Rd13	net9#88	net9#89	0.915370	$MET3	$L=1.806e-05
+ $W=1.46e-06	$X=19.555 $Y=212.415
Rd14	net9#89	net9#90	0.893069	$MET3	$L=1.762e-05
+ $W=1.46e-06	$X=19.555 $Y=194.355
Rd17	net1#284	net1#286	0.893069	$MET3	$L=1.762e-05
+ $W=1.46e-06	$X=21.335 $Y=228.755
Rd18	net1#286	net1#287	0.915370	$MET3	$L=1.806e-05
+ $W=1.46e-06	$X=21.335 $Y=211.135
Rd19	net1#287	net1#288	0.893069	$MET3	$L=1.762e-05
+ $W=1.46e-06	$X=21.335 $Y=193.075
Rd26	GNDA#357	GNDA#290	0.524041	$MET3	$L=1.388e-05
+ $W=1.96e-06	$X=70.555 $Y=161.185
Rd27	GNDA#290	GNDA#211	0.565949	$MET3	$L=1.499e-05
+ $W=1.96e-06	$X=70.555 $Y=154.245
Rd30	BIAS#139	BIAS#146	0.565194	$MET3	$L=1.497e-05
+ $W=1.96e-06	$X=72.895 $Y=167.375
Rd31	BIAS#146	BIAS#159	0.565949	$MET3	$L=1.499e-05
+ $W=1.96e-06	$X=72.895 $Y=152.405
Rd39	net9#92	net9#94	0.893069	$MET3	$L=1.762e-05
+ $W=1.46e-06	$X=94.135 $Y=230.035
Rd40	net9#94	net9#95	0.915370	$MET3	$L=1.806e-05
+ $W=1.46e-06	$X=94.135 $Y=212.415
Rd41	net9#95	net9#96	0.893069	$MET3	$L=1.762e-05
+ $W=1.46e-06	$X=94.135 $Y=194.355
Rd43	net9#96	net9#98	0.766610	$MET3	$L=1.5165e-05
+ $W=1.46e-06	$X=86.5525 $Y=173.03
Rd44	net9#98	net9#59	0.679685	$MET3	$L=1.345e-05
+ $W=1.46e-06	$X=78.97 $Y=173.03
Rd47	net1#290	net1#292	0.893069	$MET3	$L=1.762e-05
+ $W=1.46e-06	$X=95.915 $Y=228.755
Rd48	net1#292	net1#293	0.915370	$MET3	$L=1.806e-05
+ $W=1.46e-06	$X=95.915 $Y=211.135
Rd49	net1#293	net1#294	0.893069	$MET3	$L=1.762e-05
+ $W=1.46e-06	$X=95.915 $Y=193.075
Rd52	DEL#238	DEL#240	0.893069	$MET3	$L=1.762e-05
+ $W=1.46e-06	$X=97.695 $Y=227.475
Rd53	DEL#240	DEL#241	0.915370	$MET3	$L=1.806e-05
+ $W=1.46e-06	$X=97.695 $Y=209.855
Rd54	DEL#241	DEL#242	1.115056	$MET3	$L=2.20198e-05
+ $W=1.46e-06	$X=97.695 $Y=191.795
Rd56	DEL#242	DEL#124	0.548423	$MET3	$L=1.08403e-05
+ $W=1.46e-06	$X=94.0975 $Y=169.775
Rd60	DEL#124	DEL#225	1.304143	$MET3	$L=2.57505e-05
+ $W=1.46e-06	$X=97.7125 $Y=153.405
Rd63	C#33	C#35	4.901732	$MET3	$L=3.07502e-05	$W=4.6e-07
+ $X=124.425 $Y=136.17
Rd64	C#35	C#36	4.324211	$MET3	$L=2.79102e-05	$W=4.6e-07
+ $X=110.985 $Y=166.92
Rd66	GNDA#339	GNDA#325	1.446000	$MET3	$L=6.084e-05
+ $W=2.96e-06	$X=280.475 $Y=72.555
Rd67	DEL#221	DEL#229	1.446000	$MET3	$L=6.084e-05
+ $W=2.96e-06	$X=283.755 $Y=127.115
Re1	BIAS#139	BIAS#140	0.986329	$MET2	$L=2.046e-05
+ $W=1.46e-06	$X=63.165 $Y=167.375
Re6	BIAS#140	BIAS	0.670055	$MET2	$L=1.422e-05
+ $W=1.46e-06	$X=21.865 $Y=167.375
Re21	BIAS#146	BIAS#147	0.670055	$MET2	$L=1.422e-05
+ $W=1.46e-06	$X=66.285 $Y=152.405
Re32	BIAS#147	BIAS#158	0.670055	$MET2	$L=1.422e-05
+ $W=1.46e-06	$X=21.865 $Y=152.405
Re33	BIAS#159	BIAS#160	0.529658	$MET2	$L=1.145e-05
+ $W=1.46e-06	$X=67.67 $Y=137.415
Re36	BIAS#160	BIAS#163	0.632548	$MET2	$L=1.248e-05
+ $W=1.46e-06	$X=43.725 $Y=137.415
Re38	BIAS#163	BIAS#165	0.810452	$MET2	$L=1.699e-05
+ $W=1.46e-06	$X=23.25 $Y=137.415
Re54	BG_REF#9	BG_REF	0.563043	$MET2	$L=3.5e-06
+ $W=4.6e-07	$X=83.69 $Y=167.7
Re65	net10#27	net10#29	0.693864	$MET2	$L=1.37098e-05
+ $W=1.46e-06	$X=84.295 $Y=135.87
Re66	net10#29	net10#30	0.553648	$MET2	$L=1.095e-05
+ $W=1.46e-06	$X=77.44 $Y=135.87
Re67	net10#30	net10#31	0.555169	$MET2	$L=1.098e-05
+ $W=1.46e-06	$X=77.44 $Y=146.82
Re70	net10#30	net10#34	0.672422	$MET2	$L=4.69975e-06
+ $W=4.6e-07	$X=79.79 $Y=146.82
Re71	net10#34	net10#35	1.003826	$MET2	$L=6.24e-06
+ $W=4.6e-07	$X=85.26 $Y=146.82
Re72	net10#35	net10#36	0.530870	$MET2	$L=3.3e-06
+ $W=4.6e-07	$X=90.03 $Y=146.82
Re73	DEL#201	DEL#124	0.606738	$MET2	$L=2.46e-06
+ $W=3e-07	$X=94.095 $Y=157.705
Re75	DEL#124	DEL#204	0.606738	$MET2	$L=2.46e-06
+ $W=3e-07	$X=94.095 $Y=160.1645
Re80	A#19	A#24	0.683740	$MET2	$L=1.353e-05	$W=1.46e-06
+ $X=93.14 $Y=151.18
Re84	A#19	A#28	0.854267	$MET2	$L=5.3305e-06	$W=4.6e-07
+ $X=87.875 $Y=156.7695
Re85	A#28	A#29	1.215351	$MET2	$L=7.575e-06	$W=4.6e-07
+ $X=91.6625 $Y=162.1
Re88	net1#232	net1#234	1.046021	$MET2	$L=1.357e-05
+ $W=9.6e-07	$X=89.13 $Y=175.455
Re89	net1#234	net1#235	0.528388	$MET2	$L=6.88475e-06
+ $W=9.6e-07	$X=78.9025 $Y=175.455
Re91	net1#235	net1#237	0.962000	$MET2	$L=1.248e-05
+ $W=9.6e-07	$X=63.625 $Y=175.455
Re92	net1#237	net1#238	0.962000	$MET2	$L=1.248e-05
+ $W=9.6e-07	$X=51.145 $Y=175.455
Re93	net1#238	net1#239	1.816854	$MET2	$L=2.357e-05
+ $W=9.6e-07	$X=33.12 $Y=175.455
Re94	net1#235	net1#240	2.019626	$MET2	$L=3.988e-05
+ $W=1.46e-06	$X=75.46 $Y=175.455
Re95	net1#240	net1#241	1.607485	$MET2	$L=3.17353e-05
+ $W=1.46e-06	$X=59.5925 $Y=135.575
Re96	net1#241	net1#242	1.493685	$MET2	$L=2.947e-05
+ $W=1.46e-06	$X=28.99 $Y=135.575
Re99	net9#64	net9#66	5.748875	$MET2	$L=7.533e-05
+ $W=9.6e-07	$X=56.845 $Y=230.035
Re101	net1#244	net1#246	1.740542	$MET2	$L=2.258e-05
+ $W=9.6e-07	$X=84.625 $Y=228.755
Re108	net1#246	net1#253	1.122333	$MET2	$L=1.456e-05
+ $W=9.6e-07	$X=28.615 $Y=228.755
Re111	DEL#205	DEL#207	6.081104	$MET2	$L=7.889e-05
+ $W=9.6e-07	$X=58.25 $Y=227.475
Re112	VDDA#298	VDDA	0.527250	$MET2	$L=6.84e-06
+ $W=9.6e-07	$X=95.025 $Y=213.695
Re132	net9#67	net9#69	1.389813	$MET2	$L=1.803e-05
+ $W=9.6e-07	$X=85.12 $Y=212.415
Re133	net9#69	net9#70	0.962000	$MET2	$L=1.248e-05
+ $W=9.6e-07	$X=69.865 $Y=212.415
Re134	net9#70	net9#71	0.962000	$MET2	$L=1.248e-05
+ $W=9.6e-07	$X=57.385 $Y=212.415
Re135	net9#71	net9#72	0.962000	$MET2	$L=1.248e-05
+ $W=9.6e-07	$X=44.905 $Y=212.415
Re136	net9#72	net9#73	1.473063	$MET2	$L=1.986e-05
+ $W=9.6e-07	$X=29.11 $Y=212.415
Re138	net1#255	net1#257	1.740542	$MET2	$L=2.258e-05
+ $W=9.6e-07	$X=84.625 $Y=211.135
Re148	net1#257	net1#267	1.122333	$MET2	$L=1.456e-05
+ $W=9.6e-07	$X=28.615 $Y=211.135
Re151	DEL#208	DEL#210	6.081104	$MET2	$L=7.889e-05
+ $W=9.6e-07	$X=58.25 $Y=209.855
Re152	VDDA#318	VDDA	0.527250	$MET2	$L=6.84e-06
+ $W=9.6e-07	$X=95.025 $Y=195.635
Re171	net9#74	net9#76	2.832812	$MET2	$L=3.675e-05
+ $W=9.6e-07	$X=75.76 $Y=194.355
Re172	net9#76	net9#77	0.962000	$MET2	$L=1.248e-05
+ $W=9.6e-07	$X=51.145 $Y=194.355
Re173	net9#77	net9#78	1.954063	$MET2	$L=2.61e-05
+ $W=9.6e-07	$X=32.23 $Y=194.355
Re175	net1#269	net1#271	1.259542	$MET2	$L=1.634e-05
+ $W=9.6e-07	$X=87.745 $Y=193.075
Re186	net1#271	net1#282	1.122333	$MET2	$L=1.456e-05
+ $W=9.6e-07	$X=28.615 $Y=193.075
Re188	DEL#211	DEL#212	2.492875	$MET2	$L=3.234e-05
+ $W=9.6e-07	$X=34.975 $Y=191.795
Re189	DEL#212	DEL#213	1.443000	$MET2	$L=1.872e-05
+ $W=9.6e-07	$X=60.505 $Y=191.795
Re190	DEL#213	DEL#214	2.145229	$MET2	$L=2.858e-05
+ $W=9.6e-07	$X=83.78 $Y=191.795
Re191	VDDA#337	VDDA	0.527250	$MET2	$L=6.84e-06
+ $W=9.6e-07	$X=95.025 $Y=178.015
Re207	net9#79	net9#81	1.389813	$MET2	$L=1.803e-05
+ $W=9.6e-07	$X=85.12 $Y=176.735
Re208	net9#81	net9#82	0.962000	$MET2	$L=1.248e-05
+ $W=9.6e-07	$X=69.865 $Y=176.735
Re209	net9#82	net9#83	0.962000	$MET2	$L=1.248e-05
+ $W=9.6e-07	$X=57.385 $Y=176.735
Re210	net9#83	net9#84	0.962000	$MET2	$L=1.248e-05
+ $W=9.6e-07	$X=44.905 $Y=176.735
Re211	net9#84	net9#85	1.473063	$MET2	$L=1.986e-05
+ $W=9.6e-07	$X=29.11 $Y=176.735
Re213	C#20	C#22	2.228044	$MET2	$L=1.385e-05	$W=4.6e-07
+ $X=90.605 $Y=166.92
Re214	C#22	C#23	0.563043	$MET2	$L=3.5e-06	$W=4.6e-07
+ $X=81.93 $Y=166.92
Re217	DEL#215	DEL#217	0.619079	$MET2	$L=2.52975e-06
+ $W=3e-07	$X=97.76 $Y=157.805
Re218	DEL#217	DEL#218	0.651200	$MET2	$L=2.68e-06
+ $W=3e-07	$X=96.495 $Y=157.805
Re219	DEL#218	DEL#219	0.585888	$MET2	$L=2.39525e-06
+ $W=3e-07	$X=95.2975 $Y=155.125
Re222	POR_OUT_L	POR_OUT_L#13	0.589606	$MET2	$L=3.66525e-06
+ $W=4.6e-07	$X=108.607 $Y=157.725
Re225	GNDA#325	GNDA#327	1.263500	$MET2	$L=5.054e-05
+ $W=2.96e-06	$X=252.895 $Y=14.715
Re227	GNDA#327	GNDA#329	1.263500	$MET2	$L=5.054e-05
+ $W=2.96e-06	$X=199.895 $Y=14.715
Re229	GNDA#329	GNDA#215	0.695117	$MET2	$L=2.9415e-05
+ $W=2.96e-06	$X=157.4575 $Y=14.715
Re233	GNDA#215	GNDA#335	1.263500	$MET2	$L=5.054e-05
+ $W=2.96e-06	$X=93.895 $Y=14.715
Re235	GNDA#335	GNDA#337	1.263500	$MET2	$L=5.054e-05
+ $W=2.96e-06	$X=40.895 $Y=14.715
Re238	GNDA#339	GNDA#341	1.263500	$MET2	$L=5.054e-05
+ $W=2.96e-06	$X=252.895 $Y=72.555
Re240	GNDA#341	GNDA#343	1.263500	$MET2	$L=5.054e-05
+ $W=2.96e-06	$X=199.895 $Y=72.555
Re242	GNDA#343	GNDA#345	1.263500	$MET2	$L=5.054e-05
+ $W=2.96e-06	$X=146.895 $Y=72.555
Re244	GNDA#345	GNDA#347	1.263500	$MET2	$L=5.054e-05
+ $W=2.96e-06	$X=93.895 $Y=72.555
Re246	GNDA#347	GNDA#349	1.263500	$MET2	$L=5.054e-05
+ $W=2.96e-06	$X=40.895 $Y=72.555
Re248	DEL#221	DEL#222	0.771500	$MET2	$L=3.236e-05
+ $W=2.96e-06	$X=268.325 $Y=127.115
Re249	DEL#222	DEL#223	1.325000	$MET2	$L=5.3e-05
+ $W=2.96e-06	$X=226.395 $Y=127.115
Re250	DEL#223	DEL#224	1.325000	$MET2	$L=5.3e-05
+ $W=2.96e-06	$X=173.395 $Y=127.115
Re251	DEL#224	DEL#225	1.229875	$MET2	$L=4.9195e-05
+ $W=2.96e-06	$X=122.2975 $Y=127.115
Re253	DEL#225	DEL#227	1.325000	$MET2	$L=5.3e-05
+ $W=2.96e-06	$X=67.395 $Y=127.115
Re254	DEL#227	DEL#228	0.771500	$MET2	$L=3.236e-05
+ $W=2.96e-06	$X=25.465 $Y=127.115
Re255	DEL#229	DEL#230	0.771500	$MET2	$L=3.236e-05
+ $W=2.96e-06	$X=268.325 $Y=69.275
Re256	DEL#230	DEL#231	1.325000	$MET2	$L=5.3e-05
+ $W=2.96e-06	$X=226.395 $Y=69.275
Re257	DEL#231	DEL#232	1.325000	$MET2	$L=5.3e-05
+ $W=2.96e-06	$X=173.395 $Y=69.275
Re258	DEL#232	DEL#233	1.325000	$MET2	$L=5.3e-05
+ $W=2.96e-06	$X=120.395 $Y=69.275
Re259	DEL#233	DEL#234	1.325000	$MET2	$L=5.3e-05
+ $W=2.96e-06	$X=67.395 $Y=69.275
Re260	DEL#234	DEL#235	0.771500	$MET2	$L=3.236e-05
+ $W=2.96e-06	$X=25.465 $Y=69.275
Re262	VDDA#296	VDDA#355	0.677343	$MET2	$L=2.71203e-05
+ $W=2.96e-06	$X=290.34 $Y=136.245
Re263	VDDA#355	VDDA#356	3.471375	$MET2	$L=0.000138895
+ $W=2.96e-06	$X=220.8925 $Y=163.365
Re265	VDDA#356	VDDA#280	1.190002	$MET2	$L=4.864e-05
+ $W=2.96e-06	$X=127.125 $Y=178.19
Re266	VDDA#280	VDDA	0.854425	$MET2	$L=5.83148e-05
+ $W=4.96e-06	$X=101.7325 $Y=178.19
Re277	VDDA	VDDA#370	0.519503	$MET2	$L=6.84e-06
+ $W=9.6e-07	$X=95.0245 $Y=231.315
Re285	C#15	C#28	5.893916	$MET2	$L=0.000116305	$W=1.46e-06
+ $X=303.2475 $Y=15.3445
Re286	C#28	C#13	8.934486	$MET2	$L=0.000176315	$W=1.46e-06
+ $X=215.4625 $Y=131.65
Rf2	GNDA#18	GNDA#20	12.553287	$MET1	$L=5.217e-05
+ $W=3.2e-07	$X=15.625 $Y=72.555
Rf4	GNDA#21	GNDA#23	12.553287	$MET1	$L=5.217e-05
+ $W=3.2e-07	$X=15.625 $Y=14.715
Rf6	GNDA#24	GNDA#26	1.385398	$MET1	$L=5.7575e-06
+ $W=3.2e-07	$X=19.465 $Y=154.245
Rf7	GNDA#26	GNDA#28	1.209742	$MET1	$L=5.0275e-06
+ $W=3.2e-07	$X=19.465 $Y=162.516
Rf9	GNDA#28	GNDA#30	0.664068	$MET1	$L=5.22975e-06
+ $W=3.2e-07	$X=20.85 $Y=166.075
Rf11	GNDA#31	GNDA#33	1.390211	$MET1	$L=5.7775e-06
+ $W=3.2e-07	$X=19.465 $Y=139.255
Rf12	GNDA#33	GNDA#35	1.209742	$MET1	$L=5.0275e-06
+ $W=3.2e-07	$X=19.465 $Y=147.546
Rf14	GNDA#35	GNDA#37	0.664068	$MET1	$L=5.22975e-06
+ $W=3.2e-07	$X=20.85 $Y=151.105
Rf16	GNDA#38	GNDA#40	1.385398	$MET1	$L=5.7575e-06
+ $W=3.2e-07	$X=25.005 $Y=154.245
Rf17	GNDA#40	GNDA#42	1.209742	$MET1	$L=5.6725e-06
+ $W=3.2e-07	$X=25.005 $Y=162.516
Rf19	GNDA#43	GNDA#45	1.390211	$MET1	$L=5.7775e-06
+ $W=3.2e-07	$X=25.005 $Y=139.255
Rf20	GNDA#45	GNDA#47	1.209742	$MET1	$L=5.6725e-06
+ $W=3.2e-07	$X=25.005 $Y=147.546
Rf22	GNDA#48	GNDA#50	1.385398	$MET1	$L=5.7575e-06
+ $W=3.2e-07	$X=25.705 $Y=154.245
Rf23	GNDA#50	GNDA#52	1.209742	$MET1	$L=5.6725e-06
+ $W=3.2e-07	$X=25.705 $Y=162.516
Rf25	GNDA#53	GNDA#55	1.390211	$MET1	$L=5.7775e-06
+ $W=3.2e-07	$X=25.705 $Y=139.255
Rf26	GNDA#55	GNDA#57	1.209742	$MET1	$L=5.6725e-06
+ $W=3.2e-07	$X=25.705 $Y=147.546
Rf28	VDDA#27	VDDA#29	1.539398	$MET1	$L=6.3975e-06
+ $W=3.2e-07	$X=26.885 $Y=213.695
Rf29	VDDA#29	VDDA#31	1.209742	$MET1	$L=5.6725e-06
+ $W=3.2e-07	$X=26.885 $Y=222.606
Rf31	VDDA#32	VDDA#34	1.539398	$MET1	$L=6.3975e-06
+ $W=3.2e-07	$X=26.885 $Y=195.635
Rf32	VDDA#34	VDDA#36	1.209742	$MET1	$L=5.6725e-06
+ $W=3.2e-07	$X=26.885 $Y=204.546
Rf34	VDDA#37	VDDA#39	1.433523	$MET1	$L=5.9575e-06
+ $W=3.2e-07	$X=26.885 $Y=178.015
Rf35	VDDA#39	VDDA#41	1.209742	$MET1	$L=5.6725e-06
+ $W=3.2e-07	$X=26.885 $Y=186.486
Rf38	BIAS#34	BIAS#37	0.589531	$MET1	$L=2.46e-06
+ $W=3.2e-07	$X=27.245 $Y=166.075
Rf39	BIAS#34	BIAS#38	0.589411	$MET1	$L=2.46e-06
+ $W=3.2e-07	$X=29.7045 $Y=166.075
Rf42	BIAS#39	BIAS#42	0.589531	$MET1	$L=2.46e-06
+ $W=3.2e-07	$X=27.245 $Y=151.105
Rf43	BIAS#39	BIAS#43	0.589411	$MET1	$L=2.46e-06
+ $W=3.2e-07	$X=29.7045 $Y=151.105
Rf45	BIAS#44	BIAS#46	1.828148	$MET1	$L=7.5975e-06
+ $W=3.2e-07	$X=31.245 $Y=152.405
Rf46	BIAS#46	BIAS#48	1.209742	$MET1	$L=5.6725e-06
+ $W=3.2e-07	$X=31.245 $Y=162.516
Rf48	BIAS#49	BIAS#51	1.832961	$MET1	$L=7.6175e-06
+ $W=3.2e-07	$X=31.245 $Y=137.415
Rf49	BIAS#51	BIAS#53	1.209742	$MET1	$L=5.6725e-06
+ $W=3.2e-07	$X=31.245 $Y=147.546
Rf51	GNDA#58	GNDA#60	1.385398	$MET1	$L=5.7575e-06
+ $W=3.2e-07	$X=31.945 $Y=154.245
Rf52	GNDA#60	GNDA#62	1.209742	$MET1	$L=5.6725e-06
+ $W=3.2e-07	$X=31.945 $Y=162.516
Rf54	GNDA#63	GNDA#65	1.390211	$MET1	$L=5.7775e-06
+ $W=3.2e-07	$X=31.945 $Y=139.255
Rf55	GNDA#65	GNDA#67	1.209742	$MET1	$L=5.6725e-06
+ $W=3.2e-07	$X=31.945 $Y=147.546
Rf57	VDDA#42	VDDA#44	1.236812	$MET1	$L=5.15e-06
+ $W=3.2e-07	$X=29.655 $Y=231.315
Rf58	VDDA#44	VDDA#45	0.589531	$MET1	$L=2.46e-06
+ $W=3.2e-07	$X=28.425 $Y=226.165
Rf59	VDDA#44	VDDA#46	0.589411	$MET1	$L=2.46e-06
+ $W=3.2e-07	$X=30.8845 $Y=226.165
Rf61	VDDA#47	VDDA#49	1.342687	$MET1	$L=5.59e-06
+ $W=3.2e-07	$X=29.655 $Y=213.695
Rf62	VDDA#49	VDDA#50	0.589531	$MET1	$L=2.46e-06
+ $W=3.2e-07	$X=28.425 $Y=208.105
Rf63	VDDA#49	VDDA#51	0.589411	$MET1	$L=2.46e-06
+ $W=3.2e-07	$X=30.8845 $Y=208.105
Rf65	VDDA#52	VDDA#54	1.342687	$MET1	$L=5.59e-06
+ $W=3.2e-07	$X=29.655 $Y=195.635
Rf66	VDDA#54	VDDA#55	0.589531	$MET1	$L=2.46e-06
+ $W=3.2e-07	$X=28.425 $Y=190.045
Rf67	VDDA#54	VDDA#56	0.589411	$MET1	$L=2.46e-06
+ $W=3.2e-07	$X=30.8845 $Y=190.045
Rf69	VDDA#57	VDDA#59	1.539398	$MET1	$L=6.3975e-06
+ $W=3.2e-07	$X=32.425 $Y=213.695
Rf70	VDDA#59	VDDA#61	1.209742	$MET1	$L=5.6725e-06
+ $W=3.2e-07	$X=32.425 $Y=222.606
Rf72	VDDA#62	VDDA#64	1.539398	$MET1	$L=6.3975e-06
+ $W=3.2e-07	$X=32.425 $Y=195.635
Rf73	VDDA#64	VDDA#66	1.209742	$MET1	$L=5.6725e-06
+ $W=3.2e-07	$X=32.425 $Y=204.546
Rf75	VDDA#67	VDDA#69	1.433523	$MET1	$L=5.9575e-06
+ $W=3.2e-07	$X=32.425 $Y=178.015
Rf76	VDDA#69	VDDA#71	1.209742	$MET1	$L=5.6725e-06
+ $W=3.2e-07	$X=32.425 $Y=186.486
Rf78	VDDA#72	VDDA#74	1.539398	$MET1	$L=6.3975e-06
+ $W=3.2e-07	$X=33.125 $Y=213.695
Rf79	VDDA#74	VDDA#76	1.209742	$MET1	$L=5.6725e-06
+ $W=3.2e-07	$X=33.125 $Y=222.606
Rf81	VDDA#77	VDDA#79	1.539398	$MET1	$L=6.3975e-06
+ $W=3.2e-07	$X=33.125 $Y=195.635
Rf82	VDDA#79	VDDA#81	1.209742	$MET1	$L=5.6725e-06
+ $W=3.2e-07	$X=33.125 $Y=204.546
Rf84	VDDA#82	VDDA#84	1.433523	$MET1	$L=5.9575e-06
+ $W=3.2e-07	$X=33.125 $Y=178.015
Rf85	VDDA#84	VDDA#86	1.209742	$MET1	$L=5.6725e-06
+ $W=3.2e-07	$X=33.125 $Y=186.486
Rf88	BIAS#54	BIAS#57	0.589531	$MET1	$L=2.46e-06
+ $W=3.2e-07	$X=33.485 $Y=166.075
Rf89	BIAS#54	BIAS#58	0.589411	$MET1	$L=2.46e-06
+ $W=3.2e-07	$X=35.9445 $Y=166.075
Rf92	BIAS#59	BIAS#62	0.589531	$MET1	$L=2.46e-06
+ $W=3.2e-07	$X=33.485 $Y=151.105
Rf93	BIAS#59	BIAS#63	0.589411	$MET1	$L=2.46e-06
+ $W=3.2e-07	$X=35.9445 $Y=151.105
Rf95	BIAS#64	BIAS#66	1.828148	$MET1	$L=7.5975e-06
+ $W=3.2e-07	$X=37.485 $Y=152.405
Rf96	BIAS#66	BIAS#68	1.209742	$MET1	$L=5.6725e-06
+ $W=3.2e-07	$X=37.485 $Y=162.516
Rf98	BIAS#69	BIAS#71	1.832961	$MET1	$L=7.6175e-06
+ $W=3.2e-07	$X=37.485 $Y=137.415
Rf99	BIAS#71	BIAS#73	1.209742	$MET1	$L=5.6725e-06
+ $W=3.2e-07	$X=37.485 $Y=147.546
Rf101	GNDA#68	GNDA#70	1.385398	$MET1	$L=5.7575e-06
+ $W=3.2e-07	$X=38.185 $Y=154.245
Rf102	GNDA#70	GNDA#72	1.209742	$MET1	$L=5.6725e-06
+ $W=3.2e-07	$X=38.185 $Y=162.516
Rf104	GNDA#73	GNDA#75	1.390211	$MET1	$L=5.7775e-06
+ $W=3.2e-07	$X=38.185 $Y=139.255
Rf105	GNDA#75	GNDA#77	1.209742	$MET1	$L=5.6725e-06
+ $W=3.2e-07	$X=38.185 $Y=147.546
Rf107	net1#67	net1#69	0.620812	$MET1	$L=2.59e-06
+ $W=3.2e-07	$X=35.895 $Y=228.755
Rf108	net1#69	net1#70	0.589531	$MET1	$L=2.46e-06
+ $W=3.2e-07	$X=34.665 $Y=226.165
Rf109	net1#69	net1#71	0.589411	$MET1	$L=2.46e-06
+ $W=3.2e-07	$X=37.1245 $Y=226.165
Rf111	net1#72	net1#74	0.726687	$MET1	$L=3.03e-06
+ $W=3.2e-07	$X=35.895 $Y=211.135
Rf112	net1#74	net1#75	0.589531	$MET1	$L=2.46e-06
+ $W=3.2e-07	$X=34.665 $Y=208.105
Rf113	net1#74	net1#76	0.589411	$MET1	$L=2.46e-06
+ $W=3.2e-07	$X=37.1245 $Y=208.105
Rf115	net1#77	net1#79	0.726687	$MET1	$L=3.03e-06
+ $W=3.2e-07	$X=35.895 $Y=193.075
Rf116	net1#79	net1#80	0.589531	$MET1	$L=2.46e-06
+ $W=3.2e-07	$X=34.665 $Y=190.045
Rf117	net1#79	net1#81	0.589411	$MET1	$L=2.46e-06
+ $W=3.2e-07	$X=37.1245 $Y=190.045
Rf119	net9	net9#3	1.847398	$MET1	$L=7.6775e-06	$W=3.2e-07
+ $X=38.665 $Y=212.415
Rf120	net9#3	net9#5	1.209742	$MET1	$L=5.6725e-06	$W=3.2e-07
+ $X=38.665 $Y=222.606
Rf122	net1#82	net1#84	2.155398	$MET1	$L=8.9575e-06
+ $W=3.2e-07	$X=38.665 $Y=193.075
Rf123	net1#84	net1#86	1.209742	$MET1	$L=5.6725e-06
+ $W=3.2e-07	$X=38.665 $Y=204.546
Rf125	net9#6	net9#8	1.741523	$MET1	$L=7.2375e-06	$W=3.2e-07
+ $X=38.665 $Y=176.735
Rf126	net9#8	net9#10	1.209742	$MET1	$L=5.6725e-06
+ $W=3.2e-07	$X=38.665 $Y=186.486
Rf128	VDDA#87	VDDA#89	1.539398	$MET1	$L=6.3975e-06
+ $W=3.2e-07	$X=39.365 $Y=213.695
Rf129	VDDA#89	VDDA#91	1.209742	$MET1	$L=5.6725e-06
+ $W=3.2e-07	$X=39.365 $Y=222.606
Rf131	VDDA#92	VDDA#94	1.539398	$MET1	$L=6.3975e-06
+ $W=3.2e-07	$X=39.365 $Y=195.635
Rf132	VDDA#94	VDDA#96	1.209742	$MET1	$L=5.6725e-06
+ $W=3.2e-07	$X=39.365 $Y=204.546
Rf134	VDDA#97	VDDA#99	1.433523	$MET1	$L=5.9575e-06
+ $W=3.2e-07	$X=39.365 $Y=178.015
Rf135	VDDA#99	VDDA#101	1.209742	$MET1	$L=5.6725e-06
+ $W=3.2e-07	$X=39.365 $Y=186.486
Rf138	BIAS#74	BIAS#77	0.589531	$MET1	$L=2.46e-06
+ $W=3.2e-07	$X=39.725 $Y=166.075
Rf139	BIAS#74	BIAS#78	0.589411	$MET1	$L=2.46e-06
+ $W=3.2e-07	$X=42.1845 $Y=166.075
Rf142	BIAS#79	BIAS#82	0.589531	$MET1	$L=2.46e-06
+ $W=3.2e-07	$X=39.725 $Y=151.105
Rf143	BIAS#79	BIAS#83	0.589411	$MET1	$L=2.46e-06
+ $W=3.2e-07	$X=42.1845 $Y=151.105
Rf145	BIAS#84	BIAS#86	1.828148	$MET1	$L=7.5975e-06
+ $W=3.2e-07	$X=43.725 $Y=152.405
Rf146	BIAS#86	BIAS#88	1.209742	$MET1	$L=5.6725e-06
+ $W=3.2e-07	$X=43.725 $Y=162.516
Rf148	net1#87	net1#89	2.275711	$MET1	$L=9.4575e-06
+ $W=3.2e-07	$X=43.725 $Y=135.575
Rf149	net1#89	net1#91	1.209742	$MET1	$L=5.6725e-06
+ $W=3.2e-07	$X=43.725 $Y=147.546
Rf151	GNDA#78	GNDA#80	1.385398	$MET1	$L=5.7575e-06
+ $W=3.2e-07	$X=44.425 $Y=154.245
Rf152	GNDA#80	GNDA#82	1.209742	$MET1	$L=5.6725e-06
+ $W=3.2e-07	$X=44.425 $Y=162.516
Rf154	GNDA#83	GNDA#85	1.390211	$MET1	$L=5.7775e-06
+ $W=3.2e-07	$X=44.425 $Y=139.255
Rf155	GNDA#85	GNDA#87	1.209742	$MET1	$L=5.6725e-06
+ $W=3.2e-07	$X=44.425 $Y=147.546
Rf157	net1#92	net1#94	0.620812	$MET1	$L=2.59e-06
+ $W=3.2e-07	$X=42.135 $Y=228.755
Rf158	net1#94	net1#95	0.589531	$MET1	$L=2.46e-06
+ $W=3.2e-07	$X=40.905 $Y=226.165
Rf159	net1#94	net1#96	0.589411	$MET1	$L=2.46e-06
+ $W=3.2e-07	$X=43.3645 $Y=226.165
Rf161	net1#97	net1#99	0.726687	$MET1	$L=3.03e-06
+ $W=3.2e-07	$X=42.135 $Y=211.135
Rf162	net1#99	net1#100	0.589531	$MET1	$L=2.46e-06
+ $W=3.2e-07	$X=40.905 $Y=208.105
Rf163	net1#99	net1#101	0.589411	$MET1	$L=2.46e-06
+ $W=3.2e-07	$X=43.3645 $Y=208.105
Rf165	net1#102	net1#104	0.726687	$MET1	$L=3.03e-06
+ $W=3.2e-07	$X=42.135 $Y=193.075
Rf166	net1#104	net1#105	0.589531	$MET1	$L=2.46e-06
+ $W=3.2e-07	$X=40.905 $Y=190.045
Rf167	net1#104	net1#106	0.589411	$MET1	$L=2.46e-06
+ $W=3.2e-07	$X=43.3645 $Y=190.045
Rf169	net1#107	net1#109	2.155398	$MET1	$L=8.9575e-06
+ $W=3.2e-07	$X=44.905 $Y=211.135
Rf170	net1#109	net1#111	1.209742	$MET1	$L=5.6725e-06
+ $W=3.2e-07	$X=44.905 $Y=222.606
Rf172	net9#11	net9#13	1.847398	$MET1	$L=7.6775e-06
+ $W=3.2e-07	$X=44.905 $Y=194.355
Rf173	net9#13	net9#15	1.209742	$MET1	$L=5.6725e-06
+ $W=3.2e-07	$X=44.905 $Y=204.546
Rf175	net1#112	net1#114	2.049523	$MET1	$L=8.5175e-06
+ $W=3.2e-07	$X=44.905 $Y=175.455
Rf176	net1#114	net1#116	1.209742	$MET1	$L=5.6725e-06
+ $W=3.2e-07	$X=44.905 $Y=186.486
Rf178	VDDA#102	VDDA#104	1.539398	$MET1	$L=6.3975e-06
+ $W=3.2e-07	$X=45.605 $Y=213.695
Rf179	VDDA#104	VDDA#106	1.209742	$MET1	$L=5.6725e-06
+ $W=3.2e-07	$X=45.605 $Y=222.606
Rf181	VDDA#107	VDDA#109	1.539398	$MET1	$L=6.3975e-06
+ $W=3.2e-07	$X=45.605 $Y=195.635
Rf182	VDDA#109	VDDA#111	1.209742	$MET1	$L=5.6725e-06
+ $W=3.2e-07	$X=45.605 $Y=204.546
Rf184	VDDA#112	VDDA#114	1.433523	$MET1	$L=5.9575e-06
+ $W=3.2e-07	$X=45.605 $Y=178.015
Rf185	VDDA#114	VDDA#116	1.209742	$MET1	$L=5.6725e-06
+ $W=3.2e-07	$X=45.605 $Y=186.486
Rf188	BIAS#89	BIAS#92	0.589531	$MET1	$L=2.46e-06
+ $W=3.2e-07	$X=45.965 $Y=166.075
Rf189	BIAS#89	BIAS#93	0.589411	$MET1	$L=2.46e-06
+ $W=3.2e-07	$X=48.4245 $Y=166.075
Rf192	BIAS#94	BIAS#97	0.589531	$MET1	$L=2.46e-06
+ $W=3.2e-07	$X=45.965 $Y=151.105
Rf193	BIAS#94	BIAS#98	0.589411	$MET1	$L=2.46e-06
+ $W=3.2e-07	$X=48.4245 $Y=151.105
Rf195	BIAS#99	BIAS#101	1.828148	$MET1	$L=7.5975e-06
+ $W=3.2e-07	$X=49.965 $Y=152.405
Rf196	BIAS#101	BIAS#103	1.209742	$MET1	$L=5.6725e-06
+ $W=3.2e-07	$X=49.965 $Y=162.516
Rf198	BIAS#104	BIAS#106	1.832961	$MET1	$L=7.6175e-06
+ $W=3.2e-07	$X=49.965 $Y=137.415
Rf199	BIAS#106	BIAS#108	1.209742	$MET1	$L=5.6725e-06
+ $W=3.2e-07	$X=49.965 $Y=147.546
Rf201	GNDA#88	GNDA#90	1.385398	$MET1	$L=5.7575e-06
+ $W=3.2e-07	$X=50.665 $Y=154.245
Rf202	GNDA#90	GNDA#92	1.209742	$MET1	$L=5.6725e-06
+ $W=3.2e-07	$X=50.665 $Y=162.516
Rf204	GNDA#93	GNDA#95	1.390211	$MET1	$L=5.7775e-06
+ $W=3.2e-07	$X=50.665 $Y=139.255
Rf205	GNDA#95	GNDA#97	1.209742	$MET1	$L=5.6725e-06
+ $W=3.2e-07	$X=50.665 $Y=147.546
Rf207	net1#117	net1#119	0.620812	$MET1	$L=2.59e-06
+ $W=3.2e-07	$X=48.375 $Y=228.755
Rf208	net1#119	net1#120	0.589531	$MET1	$L=2.46e-06
+ $W=3.2e-07	$X=47.145 $Y=226.165
Rf209	net1#119	net1#121	0.589411	$MET1	$L=2.46e-06
+ $W=3.2e-07	$X=49.6045 $Y=226.165
Rf211	net1#122	net1#124	0.726687	$MET1	$L=3.03e-06
+ $W=3.2e-07	$X=48.375 $Y=211.135
Rf212	net1#124	net1#125	0.589531	$MET1	$L=2.46e-06
+ $W=3.2e-07	$X=47.145 $Y=208.105
Rf213	net1#124	net1#126	0.589411	$MET1	$L=2.46e-06
+ $W=3.2e-07	$X=49.6045 $Y=208.105
Rf215	net1#127	net1#129	0.726687	$MET1	$L=3.03e-06
+ $W=3.2e-07	$X=48.375 $Y=193.075
Rf216	net1#129	net1#130	0.589531	$MET1	$L=2.46e-06
+ $W=3.2e-07	$X=47.145 $Y=190.045
Rf217	net1#129	net1#131	0.589411	$MET1	$L=2.46e-06
+ $W=3.2e-07	$X=49.6045 $Y=190.045
Rf219	net9#16	net9#18	1.847398	$MET1	$L=7.6775e-06
+ $W=3.2e-07	$X=51.145 $Y=212.415
Rf220	net9#18	net9#20	1.209742	$MET1	$L=5.6725e-06
+ $W=3.2e-07	$X=51.145 $Y=222.606
Rf222	DEL#94	DEL#96	2.463398	$MET1	$L=1.02375e-05	$W=3.2e-07
+ $X=51.145 $Y=191.795
Rf223	DEL#96	DEL#98	1.209742	$MET1	$L=5.6725e-06	$W=3.2e-07
+ $X=51.145 $Y=204.546
Rf225	net9#21	net9#23	1.741523	$MET1	$L=7.2375e-06
+ $W=3.2e-07	$X=51.145 $Y=176.735
Rf226	net9#23	net9#25	1.209742	$MET1	$L=5.6725e-06
+ $W=3.2e-07	$X=51.145 $Y=186.486
Rf228	VDDA#117	VDDA#119	1.539398	$MET1	$L=6.3975e-06
+ $W=3.2e-07	$X=51.845 $Y=213.695
Rf229	VDDA#119	VDDA#121	1.209742	$MET1	$L=5.6725e-06
+ $W=3.2e-07	$X=51.845 $Y=222.606
Rf231	VDDA#122	VDDA#124	1.539398	$MET1	$L=6.3975e-06
+ $W=3.2e-07	$X=51.845 $Y=195.635
Rf232	VDDA#124	VDDA#126	1.209742	$MET1	$L=5.6725e-06
+ $W=3.2e-07	$X=51.845 $Y=204.546
Rf234	VDDA#127	VDDA#129	1.433523	$MET1	$L=5.9575e-06
+ $W=3.2e-07	$X=51.845 $Y=178.015
Rf235	VDDA#129	VDDA#131	1.209742	$MET1	$L=5.6725e-06
+ $W=3.2e-07	$X=51.845 $Y=186.486
Rf238	BIAS#109	BIAS#112	0.589531	$MET1	$L=2.46e-06
+ $W=3.2e-07	$X=52.205 $Y=166.075
Rf239	BIAS#109	BIAS#113	0.589411	$MET1	$L=2.46e-06
+ $W=3.2e-07	$X=54.6645 $Y=166.075
Rf242	BIAS#114	BIAS#117	0.589531	$MET1	$L=2.46e-06
+ $W=3.2e-07	$X=52.205 $Y=151.105
Rf243	BIAS#114	BIAS#118	0.589411	$MET1	$L=2.46e-06
+ $W=3.2e-07	$X=54.6645 $Y=151.105
Rf245	BIAS#119	BIAS#121	1.828148	$MET1	$L=7.5975e-06
+ $W=3.2e-07	$X=56.205 $Y=152.405
Rf246	BIAS#121	BIAS#123	1.209742	$MET1	$L=5.6725e-06
+ $W=3.2e-07	$X=56.205 $Y=162.516
Rf248	BIAS#124	BIAS#126	1.832961	$MET1	$L=7.6175e-06
+ $W=3.2e-07	$X=56.205 $Y=137.415
Rf249	BIAS#126	BIAS#128	1.209742	$MET1	$L=5.6725e-06
+ $W=3.2e-07	$X=56.205 $Y=147.546
Rf251	GNDA#98	GNDA#100	1.390211	$MET1	$L=5.7775e-06
+ $W=3.2e-07	$X=56.905 $Y=139.255
Rf252	GNDA#100	GNDA#102	1.209742	$MET1	$L=5.6725e-06
+ $W=3.2e-07	$X=56.905 $Y=147.546
Rf254	net1#132	net1#134	0.620812	$MET1	$L=2.59e-06
+ $W=3.2e-07	$X=54.615 $Y=228.755
Rf255	net1#134	net1#135	0.589531	$MET1	$L=2.46e-06
+ $W=3.2e-07	$X=53.385 $Y=226.165
Rf256	net1#134	net1#136	0.589411	$MET1	$L=2.46e-06
+ $W=3.2e-07	$X=55.8445 $Y=226.165
Rf258	net1#137	net1#139	0.726687	$MET1	$L=3.03e-06
+ $W=3.2e-07	$X=54.615 $Y=211.135
Rf259	net1#139	net1#140	0.589531	$MET1	$L=2.46e-06
+ $W=3.2e-07	$X=53.385 $Y=208.105
Rf260	net1#139	net1#141	0.589411	$MET1	$L=2.46e-06
+ $W=3.2e-07	$X=55.8445 $Y=208.105
Rf262	net1#142	net1#144	0.726687	$MET1	$L=3.03e-06
+ $W=3.2e-07	$X=54.615 $Y=193.075
Rf263	net1#144	net1#145	0.589531	$MET1	$L=2.46e-06
+ $W=3.2e-07	$X=53.385 $Y=190.045
Rf264	net1#144	net1#146	0.589411	$MET1	$L=2.46e-06
+ $W=3.2e-07	$X=55.8445 $Y=190.045
Rf266	net1#147	net1#149	2.155398	$MET1	$L=8.9575e-06
+ $W=3.2e-07	$X=57.385 $Y=211.135
Rf267	net1#149	net1#151	1.209742	$MET1	$L=5.6725e-06
+ $W=3.2e-07	$X=57.385 $Y=222.606
Rf269	net9#26	net9#28	1.847398	$MET1	$L=7.6775e-06
+ $W=3.2e-07	$X=57.385 $Y=194.355
Rf270	net9#28	net9#30	1.209742	$MET1	$L=5.6725e-06
+ $W=3.2e-07	$X=57.385 $Y=204.546
Rf272	net1#152	net1#154	2.049523	$MET1	$L=8.5175e-06
+ $W=3.2e-07	$X=57.385 $Y=175.455
Rf273	net1#154	net1#156	1.209742	$MET1	$L=5.6725e-06
+ $W=3.2e-07	$X=57.385 $Y=186.486
Rf275	VDDA#132	VDDA#134	1.539398	$MET1	$L=6.3975e-06
+ $W=3.2e-07	$X=58.085 $Y=213.695
Rf276	VDDA#134	VDDA#136	1.209742	$MET1	$L=5.6725e-06
+ $W=3.2e-07	$X=58.085 $Y=222.606
Rf278	VDDA#137	VDDA#139	1.539398	$MET1	$L=6.3975e-06
+ $W=3.2e-07	$X=58.085 $Y=195.635
Rf279	VDDA#139	VDDA#141	1.209742	$MET1	$L=5.6725e-06
+ $W=3.2e-07	$X=58.085 $Y=204.546
Rf281	VDDA#142	VDDA#144	1.433523	$MET1	$L=5.9575e-06
+ $W=3.2e-07	$X=58.085 $Y=178.015
Rf282	VDDA#144	VDDA#146	1.209742	$MET1	$L=5.6725e-06
+ $W=3.2e-07	$X=58.085 $Y=186.486
Rf285	BIAS#129	BIAS#132	0.589531	$MET1	$L=2.46e-06
+ $W=3.2e-07	$X=58.445 $Y=151.105
Rf286	BIAS#129	BIAS#133	0.589411	$MET1	$L=2.46e-06
+ $W=3.2e-07	$X=60.9045 $Y=151.105
Rf288	BIAS#134	BIAS#136	1.832961	$MET1	$L=7.6175e-06
+ $W=3.2e-07	$X=62.445 $Y=137.415
Rf289	BIAS#136	BIAS#138	1.209742	$MET1	$L=5.6725e-06
+ $W=3.2e-07	$X=62.445 $Y=147.546
Rf291	GNDA#103	GNDA#105	1.390211	$MET1	$L=5.7775e-06
+ $W=3.2e-07	$X=63.145 $Y=139.255
Rf292	GNDA#105	GNDA#107	1.209742	$MET1	$L=5.6725e-06
+ $W=3.2e-07	$X=63.145 $Y=147.546
Rf294	net1#157	net1#159	0.620812	$MET1	$L=2.59e-06
+ $W=3.2e-07	$X=60.855 $Y=228.755
Rf295	net1#159	net1#160	0.589531	$MET1	$L=2.46e-06
+ $W=3.2e-07	$X=59.625 $Y=226.165
Rf296	net1#159	net1#161	0.589411	$MET1	$L=2.46e-06
+ $W=3.2e-07	$X=62.0845 $Y=226.165
Rf298	net1#162	net1#164	0.726687	$MET1	$L=3.03e-06
+ $W=3.2e-07	$X=60.855 $Y=211.135
Rf299	net1#164	net1#165	0.589531	$MET1	$L=2.46e-06
+ $W=3.2e-07	$X=59.625 $Y=208.105
Rf300	net1#164	net1#166	0.589411	$MET1	$L=2.46e-06
+ $W=3.2e-07	$X=62.0845 $Y=208.105
Rf302	net1#167	net1#169	0.726687	$MET1	$L=3.03e-06
+ $W=3.2e-07	$X=60.855 $Y=193.075
Rf303	net1#169	net1#170	0.589531	$MET1	$L=2.46e-06
+ $W=3.2e-07	$X=59.625 $Y=190.045
Rf304	net1#169	net1#171	0.589411	$MET1	$L=2.46e-06
+ $W=3.2e-07	$X=62.0845 $Y=190.045
Rf306	net9#31	net9#33	1.847398	$MET1	$L=7.6775e-06
+ $W=3.2e-07	$X=63.625 $Y=212.415
Rf307	net9#33	net9#35	1.209742	$MET1	$L=5.6725e-06
+ $W=3.2e-07	$X=63.625 $Y=222.606
Rf309	net1#172	net1#174	2.155398	$MET1	$L=8.9575e-06
+ $W=3.2e-07	$X=63.625 $Y=193.075
Rf310	net1#174	net1#176	1.209742	$MET1	$L=5.6725e-06
+ $W=3.2e-07	$X=63.625 $Y=204.546
Rf312	net9#36	net9#38	1.741523	$MET1	$L=7.2375e-06
+ $W=3.2e-07	$X=63.625 $Y=176.735
Rf313	net9#38	net9#40	1.209742	$MET1	$L=5.6725e-06
+ $W=3.2e-07	$X=63.625 $Y=186.486
Rf315	VDDA#147	VDDA#149	1.539398	$MET1	$L=6.3975e-06
+ $W=3.2e-07	$X=64.325 $Y=213.695
Rf316	VDDA#149	VDDA#151	1.209742	$MET1	$L=5.6725e-06
+ $W=3.2e-07	$X=64.325 $Y=222.606
Rf318	VDDA#152	VDDA#154	1.539398	$MET1	$L=6.3975e-06
+ $W=3.2e-07	$X=64.325 $Y=195.635
Rf319	VDDA#154	VDDA#156	1.209742	$MET1	$L=5.6725e-06
+ $W=3.2e-07	$X=64.325 $Y=204.546
Rf321	VDDA#157	VDDA#159	1.433523	$MET1	$L=5.9575e-06
+ $W=3.2e-07	$X=64.325 $Y=178.015
Rf322	VDDA#159	VDDA#161	1.209742	$MET1	$L=5.6725e-06
+ $W=3.2e-07	$X=64.325 $Y=186.486
Rf325	DEL#99	DEL	0.596807	$MET1	$L=2.49025e-06	$W=3.2e-07
+ $X=39.65 $Y=125.125
Rf328	DEL#99	DEL	1.551975	$MET1	$L=6.45975e-06	$W=3.2e-07
+ $X=44.125 $Y=125.125
Rf330	DEL	DEL#107	1.696406	$MET1	$L=9.57e-06
+ $W=3.2e-07	$X=59.81 $Y=125.125
Rf333	DEL#108	DEL#9	0.596807	$MET1	$L=2.49025e-06
+ $W=3.2e-07	$X=39.65 $Y=67.285
Rf336	DEL#108	DEL#9	1.551975	$MET1	$L=6.45975e-06
+ $W=3.2e-07	$X=44.125 $Y=67.285
Rf338	DEL#9	DEL#116	1.696406	$MET1	$L=9.57e-06
+ $W=3.2e-07	$X=59.81 $Y=67.285
Rf340	GNDA#108	GNDA#110	12.553287	$MET1	$L=5.217e-05
+ $W=3.2e-07	$X=66.165 $Y=72.555
Rf342	GNDA#111	GNDA#113	12.553287	$MET1	$L=5.217e-05
+ $W=3.2e-07	$X=66.165 $Y=14.715
Rf344	GNDA#114	GNDA#116	12.553287	$MET1	$L=5.217e-05
+ $W=3.2e-07	$X=68.625 $Y=72.555
Rf346	GNDA#117	GNDA#119	12.553287	$MET1	$L=5.217e-05
+ $W=3.2e-07	$X=68.625 $Y=14.715
Rf348	GNDA#120	GNDA#122	1.385398	$MET1	$L=5.7575e-06
+ $W=3.2e-07	$X=56.905 $Y=154.245
Rf349	GNDA#122	GNDA#124	1.209742	$MET1	$L=5.0275e-06
+ $W=3.2e-07	$X=56.905 $Y=162.516
Rf351	GNDA#124	GNDA#126	0.664068	$MET1	$L=2.76975e-06
+ $W=3.2e-07	$X=58.29 $Y=166.075
Rf352	GNDA#126	GNDA#127	0.664182	$MET1	$L=2.77025e-06
+ $W=3.2e-07	$X=61.06 $Y=166.075
Rf354	GNDA#127	GNDA#128	1.209742	$MET1	$L=5.0275e-06
+ $W=3.2e-07	$X=62.445 $Y=165.03
Rf355	GNDA#128	GNDA#131	1.385398	$MET1	$L=5.7575e-06
+ $W=3.2e-07	$X=62.445 $Y=157.1235
Rf359	GNDA#127	GNDA#134	1.209742	$MET1	$L=5.0275e-06
+ $W=3.2e-07	$X=63.145 $Y=165.03
Rf360	GNDA#134	GNDA#137	1.385398	$MET1	$L=5.7575e-06
+ $W=3.2e-07	$X=63.145 $Y=157.1235
Rf362	GNDA#127	GNDA#139	0.664068	$MET1	$L=2.76975e-06
+ $W=3.2e-07	$X=64.53 $Y=166.075
Rf363	GNDA#139	GNDA#140	0.664182	$MET1	$L=2.77025e-06
+ $W=3.2e-07	$X=67.3 $Y=166.075
Rf365	GNDA#140	GNDA#141	1.209742	$MET1	$L=5.0275e-06
+ $W=3.2e-07	$X=68.685 $Y=165.03
Rf366	GNDA#141	GNDA#144	1.385398	$MET1	$L=5.7575e-06
+ $W=3.2e-07	$X=68.685 $Y=157.1235
Rf369	GNDA#146	GNDA#148	1.390211	$MET1	$L=5.7775e-06
+ $W=3.2e-07	$X=68.685 $Y=139.255
Rf370	GNDA#148	GNDA#150	1.209742	$MET1	$L=5.0275e-06
+ $W=3.2e-07	$X=68.685 $Y=147.546
Rf372	GNDA#150	GNDA#152	0.664182	$MET1	$L=5.23025e-06
+ $W=3.2e-07	$X=67.3 $Y=151.105
Rf374	net1#177	net1#179	0.620812	$MET1	$L=2.59e-06
+ $W=3.2e-07	$X=67.095 $Y=228.755
Rf375	net1#179	net1#180	0.589531	$MET1	$L=2.46e-06
+ $W=3.2e-07	$X=65.865 $Y=226.165
Rf376	net1#179	net1#181	0.589411	$MET1	$L=2.46e-06
+ $W=3.2e-07	$X=68.3245 $Y=226.165
Rf378	net1#182	net1#184	0.726687	$MET1	$L=3.03e-06
+ $W=3.2e-07	$X=67.095 $Y=211.135
Rf379	net1#184	net1#185	0.589531	$MET1	$L=2.46e-06
+ $W=3.2e-07	$X=65.865 $Y=208.105
Rf380	net1#184	net1#186	0.589411	$MET1	$L=2.46e-06
+ $W=3.2e-07	$X=68.3245 $Y=208.105
Rf382	net1#187	net1#189	0.726687	$MET1	$L=3.03e-06
+ $W=3.2e-07	$X=67.095 $Y=193.075
Rf383	net1#189	net1#190	0.589531	$MET1	$L=2.46e-06
+ $W=3.2e-07	$X=65.865 $Y=190.045
Rf384	net1#189	net1#191	0.589411	$MET1	$L=2.46e-06
+ $W=3.2e-07	$X=68.3245 $Y=190.045
Rf386	net1#192	net1#194	2.155398	$MET1	$L=8.9575e-06
+ $W=3.2e-07	$X=69.865 $Y=211.135
Rf387	net1#194	net1#196	1.209742	$MET1	$L=5.6725e-06
+ $W=3.2e-07	$X=69.865 $Y=222.606
Rf389	DEL#117	DEL#119	2.463398	$MET1	$L=1.02375e-05
+ $W=3.2e-07	$X=69.865 $Y=191.795
Rf390	DEL#119	DEL#121	1.209742	$MET1	$L=5.6725e-06
+ $W=3.2e-07	$X=69.865 $Y=204.546
Rf392	net1#197	net1#199	2.049523	$MET1	$L=8.5175e-06
+ $W=3.2e-07	$X=69.865 $Y=175.455
Rf393	net1#199	net1#201	1.209742	$MET1	$L=5.6725e-06
+ $W=3.2e-07	$X=69.865 $Y=186.486
Rf395	VDDA#162	VDDA#164	1.539398	$MET1	$L=6.3975e-06
+ $W=3.2e-07	$X=70.565 $Y=213.695
Rf396	VDDA#164	VDDA#166	1.209742	$MET1	$L=5.6725e-06
+ $W=3.2e-07	$X=70.565 $Y=222.606
Rf398	VDDA#167	VDDA#169	1.539398	$MET1	$L=6.3975e-06
+ $W=3.2e-07	$X=70.565 $Y=195.635
Rf399	VDDA#169	VDDA#171	1.209742	$MET1	$L=5.6725e-06
+ $W=3.2e-07	$X=70.565 $Y=204.546
Rf401	VDDA#172	VDDA#174	1.433523	$MET1	$L=5.9575e-06
+ $W=3.2e-07	$X=70.565 $Y=178.015
Rf402	VDDA#174	VDDA#176	1.209742	$MET1	$L=5.6725e-06
+ $W=3.2e-07	$X=70.565 $Y=186.486
Rf404	net1#202	net1#204	0.620812	$MET1	$L=2.59e-06
+ $W=3.2e-07	$X=73.335 $Y=228.755
Rf405	net1#204	net1#205	0.589531	$MET1	$L=2.46e-06
+ $W=3.2e-07	$X=72.105 $Y=226.165
Rf406	net1#204	net1#206	0.589411	$MET1	$L=2.46e-06
+ $W=3.2e-07	$X=74.5645 $Y=226.165
Rf408	net1#207	net1#209	0.726687	$MET1	$L=3.03e-06
+ $W=3.2e-07	$X=73.335 $Y=211.135
Rf409	net1#209	net1#210	0.589531	$MET1	$L=2.46e-06
+ $W=3.2e-07	$X=72.105 $Y=208.105
Rf410	net1#209	net1#211	0.589411	$MET1	$L=2.46e-06
+ $W=3.2e-07	$X=74.5645 $Y=208.105
Rf412	net1#212	net1#214	0.726687	$MET1	$L=3.03e-06
+ $W=3.2e-07	$X=73.335 $Y=193.075
Rf413	net1#214	net1#215	0.589531	$MET1	$L=2.46e-06
+ $W=3.2e-07	$X=72.105 $Y=190.045
Rf414	net1#214	net1#216	0.589411	$MET1	$L=2.46e-06
+ $W=3.2e-07	$X=74.5645 $Y=190.045
Rf416	net9#41	net9#43	1.847398	$MET1	$L=7.6775e-06
+ $W=3.2e-07	$X=76.105 $Y=212.415
Rf417	net9#43	net9#45	1.209742	$MET1	$L=5.6725e-06
+ $W=3.2e-07	$X=76.105 $Y=222.606
Rf419	net1#217	net1#219	2.155398	$MET1	$L=8.9575e-06
+ $W=3.2e-07	$X=76.105 $Y=193.075
Rf420	net1#219	net1#221	1.209742	$MET1	$L=5.6725e-06
+ $W=3.2e-07	$X=76.105 $Y=204.546
Rf422	net9#46	net9#48	1.741523	$MET1	$L=7.2375e-06
+ $W=3.2e-07	$X=76.105 $Y=176.735
Rf423	net9#48	net9#50	1.209742	$MET1	$L=5.6725e-06
+ $W=3.2e-07	$X=76.105 $Y=186.486
Rf425	VDDA#177	VDDA#179	1.539398	$MET1	$L=6.3975e-06
+ $W=3.2e-07	$X=76.805 $Y=213.695
Rf426	VDDA#179	VDDA#181	1.209742	$MET1	$L=5.6725e-06
+ $W=3.2e-07	$X=76.805 $Y=222.606
Rf428	VDDA#182	VDDA#184	1.539398	$MET1	$L=6.3975e-06
+ $W=3.2e-07	$X=76.805 $Y=195.635
Rf429	VDDA#184	VDDA#186	1.209742	$MET1	$L=5.6725e-06
+ $W=3.2e-07	$X=76.805 $Y=204.546
Rf431	VDDA#187	VDDA#189	1.433523	$MET1	$L=5.9575e-06
+ $W=3.2e-07	$X=76.805 $Y=178.015
Rf432	VDDA#189	VDDA#191	1.209742	$MET1	$L=5.6725e-06
+ $W=3.2e-07	$X=76.805 $Y=186.486
Rf434	net9#51	net9#54	0.943250	$MET1	$L=5.88e-06
+ $W=3.2e-07	$X=81.42 $Y=159.58
Rf436	VDDA#192	VDDA#194	1.236812	$MET1	$L=5.15e-06
+ $W=3.2e-07	$X=79.575 $Y=231.315
Rf437	VDDA#194	VDDA#195	0.589531	$MET1	$L=2.46e-06
+ $W=3.2e-07	$X=78.345 $Y=226.165
Rf438	VDDA#194	VDDA#196	0.589411	$MET1	$L=2.46e-06
+ $W=3.2e-07	$X=80.8045 $Y=226.165
Rf440	VDDA#197	VDDA#199	1.342687	$MET1	$L=5.59e-06
+ $W=3.2e-07	$X=79.575 $Y=213.695
Rf441	VDDA#199	VDDA#200	0.589531	$MET1	$L=2.46e-06
+ $W=3.2e-07	$X=78.345 $Y=208.105
Rf442	VDDA#199	VDDA#201	0.589411	$MET1	$L=2.46e-06
+ $W=3.2e-07	$X=80.8045 $Y=208.105
Rf444	net1#222	net1#224	0.726687	$MET1	$L=3.03e-06
+ $W=3.2e-07	$X=79.575 $Y=193.075
Rf445	net1#224	net1#225	0.589531	$MET1	$L=2.46e-06
+ $W=3.2e-07	$X=78.345 $Y=190.045
Rf446	net1#224	net1#226	0.589411	$MET1	$L=2.46e-06
+ $W=3.2e-07	$X=80.8045 $Y=190.045
Rf448	VDDA#202	VDDA#204	1.539398	$MET1	$L=6.3975e-06
+ $W=3.2e-07	$X=82.345 $Y=213.695
Rf449	VDDA#204	VDDA#206	1.209742	$MET1	$L=5.6725e-06
+ $W=3.2e-07	$X=82.345 $Y=222.606
Rf451	VDDA#207	VDDA#209	1.539398	$MET1	$L=6.3975e-06
+ $W=3.2e-07	$X=82.345 $Y=195.635
Rf452	VDDA#209	VDDA#211	1.209742	$MET1	$L=5.6725e-06
+ $W=3.2e-07	$X=82.345 $Y=204.546
Rf454	net1#227	net1#229	2.049523	$MET1	$L=8.5175e-06
+ $W=3.2e-07	$X=82.345 $Y=175.455
Rf455	net1#229	net1#231	1.209742	$MET1	$L=5.6725e-06
+ $W=3.2e-07	$X=82.345 $Y=186.486
Rf457	net10#7	net10#10	1.371562	$MET1	$L=7.66e-06
+ $W=3.2e-07	$X=82.46 $Y=157.8
Rf463	VDDA#212	VDDA#214	1.539398	$MET1	$L=6.3975e-06
+ $W=3.2e-07	$X=83.045 $Y=213.695
Rf464	VDDA#214	VDDA#216	1.209742	$MET1	$L=5.6725e-06
+ $W=3.2e-07	$X=83.045 $Y=222.606
Rf466	VDDA#217	VDDA#219	1.539398	$MET1	$L=6.3975e-06
+ $W=3.2e-07	$X=83.045 $Y=195.635
Rf467	VDDA#219	VDDA#221	1.209742	$MET1	$L=5.6725e-06
+ $W=3.2e-07	$X=83.045 $Y=204.546
Rf469	VDDA#222	VDDA#224	1.433523	$MET1	$L=5.9575e-06
+ $W=3.2e-07	$X=83.045 $Y=178.015
Rf470	VDDA#224	VDDA#226	1.209742	$MET1	$L=5.6725e-06
+ $W=3.2e-07	$X=83.045 $Y=186.486
Rf472	net9#55	net9#58	0.943250	$MET1	$L=5.88e-06
+ $W=3.2e-07	$X=83.16 $Y=159.58
Rf474	A#7	A#10	1.799875	$MET1	$L=9.44e-06	$W=3.2e-07
+ $X=84.2 $Y=156.02
Rf479	net10#11	net10#12	0.590189	$MET1	$L=2.46e-06
+ $W=3.2e-07	$X=83.3695 $Y=146.08
Rf481	net10#12	net10#14	0.590310	$MET1	$L=2.46e-06
+ $W=3.2e-07	$X=80.91 $Y=146.08
Rf485	A#11	A#14	1.340281	$MET1	$L=8.03e-06	$W=3.2e-07
+ $X=84.91 $Y=137.65
Rf487	VDDA#227	VDDA#229	1.236812	$MET1	$L=5.15e-06
+ $W=3.2e-07	$X=85.815 $Y=231.315
Rf488	VDDA#229	VDDA#230	0.589531	$MET1	$L=2.46e-06
+ $W=3.2e-07	$X=84.585 $Y=226.165
Rf489	VDDA#229	VDDA#231	0.589411	$MET1	$L=2.46e-06
+ $W=3.2e-07	$X=87.0445 $Y=226.165
Rf491	VDDA#232	VDDA#234	1.342687	$MET1	$L=5.59e-06
+ $W=3.2e-07	$X=85.815 $Y=213.695
Rf492	VDDA#234	VDDA#235	0.589531	$MET1	$L=2.46e-06
+ $W=3.2e-07	$X=84.585 $Y=208.105
Rf493	VDDA#234	VDDA#236	0.589411	$MET1	$L=2.46e-06
+ $W=3.2e-07	$X=87.0445 $Y=208.105
Rf495	VDDA#237	VDDA#239	1.342687	$MET1	$L=5.59e-06
+ $W=3.2e-07	$X=85.815 $Y=195.635
Rf496	VDDA#239	VDDA#240	0.589531	$MET1	$L=2.46e-06
+ $W=3.2e-07	$X=84.585 $Y=190.045
Rf497	VDDA#239	VDDA#241	0.589411	$MET1	$L=2.46e-06
+ $W=3.2e-07	$X=87.0445 $Y=190.045
Rf499	VDDA#242	VDDA#244	1.539398	$MET1	$L=6.3975e-06
+ $W=3.2e-07	$X=88.585 $Y=213.695
Rf500	VDDA#244	VDDA#246	1.209742	$MET1	$L=5.6725e-06
+ $W=3.2e-07	$X=88.585 $Y=222.606
Rf502	VDDA#247	VDDA#249	1.539398	$MET1	$L=6.3975e-06
+ $W=3.2e-07	$X=88.585 $Y=195.635
Rf503	VDDA#249	VDDA#251	1.209742	$MET1	$L=5.6725e-06
+ $W=3.2e-07	$X=88.585 $Y=204.546
Rf505	VDDA#252	VDDA#254	1.433523	$MET1	$L=5.9575e-06
+ $W=3.2e-07	$X=88.585 $Y=178.015
Rf506	VDDA#254	VDDA#256	1.209742	$MET1	$L=5.6725e-06
+ $W=3.2e-07	$X=88.585 $Y=186.486
Rf507	net10#17	net10#18	0.590189	$MET1	$L=2.46e-06
+ $W=3.2e-07	$X=89.6095 $Y=146.08
Rf509	net10#18	net10#20	0.590310	$MET1	$L=2.46e-06
+ $W=3.2e-07	$X=87.15 $Y=146.08
Rf513	net10#23	net10#26	1.768594	$MET1	$L=9.81e-06
+ $W=3.2e-07	$X=91.15 $Y=135.87
Rf514	DEL#122	DEL#124	0.591877	$MET1	$L=2.46e-06
+ $W=3.2e-07	$X=94.095 $Y=157.705
Rf516	DEL#124	DEL#126	0.591877	$MET1	$L=2.46e-06
+ $W=3.2e-07	$X=94.095 $Y=160.1645
Rf522	XI0/net39#2	XI0/net39#4	0.672941	$MET1	$L=1.8355e-06
+ $W=2.1e-07	$X=100.2375 $Y=156.855
Rf526	XI0/net31#28	XI0/net31#31	0.917667	$MET1	$L=2.52775e-06
+ $W=3.4e-07	$X=99.5185 $Y=157.315
Rf532	XI0/net14	XI0/net14#5	0.633434	$MET1	$L=2.18e-06
+ $W=2.65e-07	$X=100.235 $Y=158.4375
Rf535	VDDA	VDDA#259	1.456811	$MET1	$L=5.97025e-05
+ $W=3.155e-06	$X=100.5725 $Y=232.525
Rf538	VDDA#259	VDDA#262	15.176168	$MET1	$L=6.308e-05
+ $W=3.2e-07	$X=49.635 $Y=174.245
Rf540	VDDA#259	VDDA#264	0.747565	$MET1	$L=3.205e-06
+ $W=3.2e-07	$X=81.0725 $Y=168.66
Rf541	VDDA#264	VDDA#265	3.388000	$MET1	$L=1.41e-05
+ $W=3.2e-07	$X=79.47 $Y=168.66
Rf542	VDDA#265	VDDA#266	1.602563	$MET1	$L=6.68e-06
+ $W=3.2e-07	$X=82.81 $Y=154.56
Rf543	VDDA#266	VDDA#267	3.388000	$MET1	$L=1.41e-05
+ $W=3.2e-07	$X=86.15 $Y=154.56
Rf545	VDDA#262	VDDA#269	14.018812	$MET1	$L=5.828e-05
+ $W=3.2e-07	$X=18.095 $Y=174.245
Rf546	VDDA#269	VDDA#270	9.178797	$MET1	$L=4.05298e-05
+ $W=3.2e-07	$X=38.3625 $Y=232.525
Rf547	VDDA#267	VDDA#259	0.544039	$MET1	$L=2.40225e-06
+ $W=3.2e-07	$X=83.8785 $Y=168.66
Rf548	VDDA#270	VDDA	9.178859	$MET1	$L=4.19478e-05
+ $W=3.2e-07	$X=79.601 $Y=232.525
Rf575	DEL#129	DEL#30	0.596807	$MET1	$L=2.49025e-06
+ $W=3.2e-07	$X=92.65 $Y=125.125
Rf578	DEL#129	DEL#30	1.551975	$MET1	$L=6.45975e-06
+ $W=3.2e-07	$X=97.125 $Y=125.125
Rf580	DEL#30	DEL#137	1.696406	$MET1	$L=9.57e-06
+ $W=3.2e-07	$X=112.81 $Y=125.125
Rf583	DEL#138	DEL#38	0.596807	$MET1	$L=2.49025e-06
+ $W=3.2e-07	$X=92.65 $Y=67.285
Rf586	DEL#138	DEL#38	1.551975	$MET1	$L=6.45975e-06
+ $W=3.2e-07	$X=97.125 $Y=67.285
Rf588	DEL#38	DEL#146	1.696406	$MET1	$L=9.57e-06
+ $W=3.2e-07	$X=112.81 $Y=67.285
Rf590	GNDA#153	GNDA#155	12.553287	$MET1	$L=5.217e-05
+ $W=3.2e-07	$X=119.165 $Y=72.555
Rf592	GNDA#156	GNDA#158	12.553287	$MET1	$L=5.217e-05
+ $W=3.2e-07	$X=119.165 $Y=14.715
Rf594	GNDA#159	GNDA#161	12.553287	$MET1	$L=5.217e-05
+ $W=3.2e-07	$X=121.625 $Y=72.555
Rf596	GNDA#162	GNDA#164	12.553287	$MET1	$L=5.217e-05
+ $W=3.2e-07	$X=121.625 $Y=14.715
Rf600	DEL#147	DEL#46	0.596807	$MET1	$L=2.49025e-06
+ $W=3.2e-07	$X=145.65 $Y=125.125
Rf603	DEL#147	DEL#46	1.551975	$MET1	$L=6.45975e-06
+ $W=3.2e-07	$X=150.125 $Y=125.125
Rf605	DEL#46	DEL#155	1.696406	$MET1	$L=9.57e-06
+ $W=3.2e-07	$X=165.81 $Y=125.125
Rf608	DEL#156	DEL#54	0.596807	$MET1	$L=2.49025e-06
+ $W=3.2e-07	$X=145.65 $Y=67.285
Rf611	DEL#156	DEL#54	1.551975	$MET1	$L=6.45975e-06
+ $W=3.2e-07	$X=150.125 $Y=67.285
Rf613	DEL#54	DEL#164	1.696406	$MET1	$L=9.57e-06
+ $W=3.2e-07	$X=165.81 $Y=67.285
Rf615	GNDA#165	GNDA#167	12.553287	$MET1	$L=5.217e-05
+ $W=3.2e-07	$X=172.165 $Y=72.555
Rf617	GNDA#168	GNDA#170	12.553287	$MET1	$L=5.217e-05
+ $W=3.2e-07	$X=172.165 $Y=14.715
Rf619	GNDA#171	GNDA#173	12.553287	$MET1	$L=5.217e-05
+ $W=3.2e-07	$X=174.625 $Y=72.555
Rf621	GNDA#174	GNDA#176	12.553287	$MET1	$L=5.217e-05
+ $W=3.2e-07	$X=174.625 $Y=14.715
Rf624	DEL#165	DEL#62	0.596807	$MET1	$L=2.49025e-06
+ $W=3.2e-07	$X=198.65 $Y=125.125
Rf627	DEL#165	DEL#62	1.551975	$MET1	$L=6.45975e-06
+ $W=3.2e-07	$X=203.125 $Y=125.125
Rf629	DEL#62	DEL#173	1.696406	$MET1	$L=9.57e-06
+ $W=3.2e-07	$X=218.81 $Y=125.125
Rf632	DEL#174	DEL#70	0.596807	$MET1	$L=2.49025e-06
+ $W=3.2e-07	$X=198.65 $Y=67.285
Rf635	DEL#174	DEL#70	1.551975	$MET1	$L=6.45975e-06
+ $W=3.2e-07	$X=203.125 $Y=67.285
Rf637	DEL#70	DEL#182	1.696406	$MET1	$L=9.57e-06
+ $W=3.2e-07	$X=218.81 $Y=67.285
Rf639	GNDA#177	GNDA#179	12.553287	$MET1	$L=5.217e-05
+ $W=3.2e-07	$X=225.165 $Y=72.555
Rf641	GNDA#180	GNDA#182	12.553287	$MET1	$L=5.217e-05
+ $W=3.2e-07	$X=225.165 $Y=14.715
Rf643	GNDA#183	GNDA#185	12.553287	$MET1	$L=5.217e-05
+ $W=3.2e-07	$X=227.625 $Y=72.555
Rf645	GNDA#186	GNDA#188	12.553287	$MET1	$L=5.217e-05
+ $W=3.2e-07	$X=227.625 $Y=14.715
Rf648	DEL#183	DEL#78	0.596807	$MET1	$L=2.49025e-06
+ $W=3.2e-07	$X=251.65 $Y=125.125
Rf651	DEL#183	DEL#78	1.551975	$MET1	$L=6.45975e-06
+ $W=3.2e-07	$X=256.125 $Y=125.125
Rf653	DEL#78	DEL#191	1.696406	$MET1	$L=9.57e-06
+ $W=3.2e-07	$X=271.81 $Y=125.125
Rf656	DEL#192	DEL#86	0.596807	$MET1	$L=2.49025e-06
+ $W=3.2e-07	$X=251.65 $Y=67.285
Rf659	DEL#192	DEL#86	1.551975	$MET1	$L=6.45975e-06
+ $W=3.2e-07	$X=256.125 $Y=67.285
Rf661	DEL#86	DEL#200	1.696406	$MET1	$L=9.57e-06
+ $W=3.2e-07	$X=271.81 $Y=67.285
Rf663	GNDA#189	GNDA#191	12.553287	$MET1	$L=5.217e-05
+ $W=3.2e-07	$X=278.165 $Y=72.555
Rf665	GNDA#192	GNDA#194	12.553287	$MET1	$L=5.217e-05
+ $W=3.2e-07	$X=278.165 $Y=14.715
Rf685	GNDA#195	GNDA#211	0.920062	$MET1	$L=6.106e-05
+ $W=5.11e-06	$X=44.075 $Y=131.72
Rf687	GNDA#211	GNDA	1.487140	$MET1	$L=0.000126335
+ $W=6.415e-06	$X=7.2035 $Y=129.27
Rf690	GNDA	GNDA#215	1.570130	$MET1	$L=0.000129765
+ $W=6.41e-06	$X=77.8675 $Y=4.395
Rf693	GNDA#215	GNDA#218	33.522255	$MET1	$L=0.000142685
+ $W=3.2e-07	$X=214.0925 $Y=12.505
Rf695	GNDA#218	GNDA#220	2.504572	$MET1	$L=1.219e-05
+ $W=3.2e-07	$X=291.53 $Y=11.085
Rf697	GNDA#220	GNDA#222	1.058215	$MET1	$L=8.71553e-05
+ $W=6.41e-06	$X=341.2025 $Y=4.395
Rf700	GNDA#222	GNDA#225	0.731552	$MET1	$L=4.85e-06
+ $W=3.2e-07	$X=386.365 $Y=11.085
Rf701	GNDA#225	GNDA#226	56.605827	$MET1	$L=0.000235265
+ $W=3.2e-07	$X=388.79 $Y=11.085
Rf702	GNDA#226	GNDA#227	92.554070	$MET1	$L=0.00038466
+ $W=3.2e-07	$X=196.46 $Y=246.35
Rf707	GNDA#195	GNDA#234	1.195337	$MET1	$L=3.37525e-06
+ $W=2.1e-07	$X=101.89 $Y=155.035
Rf715	GNDA#195	GNDA#244	2.213750	$MET1	$L=9.22e-06
+ $W=3.2e-07	$X=91.465 $Y=153.995
Rf716	GNDA#244	GNDA#245	4.364937	$MET1	$L=1.816e-05
+ $W=3.2e-07	$X=100.545 $Y=163.215
Rf717	GNDA#245	GNDA#195	2.213750	$MET1	$L=9.22e-06
+ $W=3.2e-07	$X=109.625 $Y=163.215
Rf719	GNDA#195	GNDA#249	0.728251	$MET1	$L=6.36e-06
+ $W=3.2e-07	$X=94.705 $Y=154.905
Rf722	GNDA#195	GNDA#253	0.741139	$MET1	$L=5.54025e-06
+ $W=3.2e-07	$X=85.61 $Y=140.1395
Rf725	GNDA#195	GNDA#257	0.741139	$MET1	$L=5.54025e-06
+ $W=3.2e-07	$X=79.37 $Y=140.1395
Rf726	GNDA#195	GNDA#258	3.788202	$MET1	$L=1.59128e-05
+ $W=3.2e-07	$X=78.13 $Y=131.8675
Rf727	GNDA#258	GNDA#259	1.614679	$MET1	$L=7.12975e-06
+ $W=3.2e-07	$X=81.6975 $Y=147.78
Rf728	GNDA#211	GNDA#260	8.892141	$MET1	$L=3.71152e-05
+ $W=3.2e-07	$X=13.545 $Y=131.72
Rf729	GNDA#260	GNDA#261	14.687750	$MET1	$L=6.106e-05
+ $W=3.2e-07	$X=44.075 $Y=168.835
Rf730	GNDA#261	GNDA#262	3.931586	$MET1	$L=1.73603e-05
+ $W=3.2e-07	$X=74.6075 $Y=168.835
Rf731	GNDA#215	GNDA#263	14.662275	$MET1	$L=6.77878e-05
+ $W=3.2e-07	$X=108.8585 $Y=11.085
Rf732	GNDA#215	GNDA#264	14.662275	$MET1	$L=6.77878e-05
+ $W=3.2e-07	$X=108.8585 $Y=12.505
Rf734	GNDA#218	GNDA#266	15.872191	$MET1	$L=7.0085e-05
+ $W=3.2e-07	$X=250.395 $Y=11.085
Rf735	GNDA#220	GNDA#267	0.920737	$MET1	$L=7.68875e-05
+ $W=6.41e-06	$X=259.1835 $Y=4.395
Rf736	GNDA#222	GNDA#268	9.350975	$MET1	$L=4.30802e-05
+ $W=3.2e-07	$X=362.4025 $Y=11.085
Rf738	GNDA#222	GNDA#220	20.306490	$MET1	$L=8.63152e-05
+ $W=3.2e-07	$X=340.785 $Y=12.935
Rf739	GNDA#227	GNDA#271	12.096531	$MET1	$L=5.34128e-05
+ $W=3.2e-07	$X=4.13 $Y=246.35
Rf740	GNDA#195	GNDA#273	1.195341	$MET1	$L=7.57e-06
+ $W=3.2e-07	$X=93.205 $Y=155.035
Rf742	GNDA#259	GNDA#195	1.614741	$MET1	$L=8.58775e-06
+ $W=3.2e-07	$X=89.556 $Y=147.78
Rf743	GNDA#262	GNDA#195	4.473927	$MET1	$L=1.9755e-05
+ $W=3.2e-07	$X=74.605 $Y=141.6
Rf744	GNDA#263	GNDA	14.852512	$MET1	$L=6.779e-05
+ $W=3.2e-07	$X=41.07 $Y=11.085
Rf745	GNDA#264	GNDA	15.352442	$MET1	$L=6.779e-05
+ $W=3.2e-07	$X=41.07 $Y=12.505
Rf746	GNDA#266	GNDA#215	15.752158	$MET1	$L=7.25997e-05
+ $W=3.2e-07	$X=179.0525 $Y=11.085
Rf747	GNDA#267	GNDA#215	0.933906	$MET1	$L=7.79873e-05
+ $W=6.41e-06	$X=181.746 $Y=4.395
Rf748	GNDA#268	GNDA#220	9.402654	$MET1	$L=4.3235e-05
+ $W=3.2e-07	$X=319.245 $Y=11.085
Rf751	GNDA#220	GNDA#275	2.168973	$MET1	$L=0.0001189
+ $W=4.21e-06	$X=297.5425 $Y=12.935
Rf754	GNDA#275	GNDA#278	13.858726	$MET1	$L=6.118e-05
+ $W=3.2e-07	$X=285.9675 $Y=132.095
Rf755	GNDA#271	GNDA#211	12.064848	$MET1	$L=5.40975e-05
+ $W=3.2e-07	$X=5.6825 $Y=129.27
Rf757	GNDA#275	GNDA#280	7.271900	$MET1	$L=3.0375e-05
+ $W=3.2e-07	$X=299.57 $Y=131.835
Rf758	GNDA#280	GNDA#281	21.122063	$MET1	$L=8.78e-05
+ $W=3.2e-07	$X=343.47 $Y=162.21
Rf759	GNDA#281	GNDA#222	35.914486	$MET1	$L=0.000149275
+ $W=3.2e-07	$X=387.37 $Y=162.21
Rf761	GNDA#275	GNDA#195	2.259494	$MET1	$L=0.000165195
+ $W=5.63e-06	$X=203.3675 $Y=131.98
Rf764	GNDA#278	GNDA#218	13.282288	$MET1	$L=5.895e-05
+ $W=3.2e-07	$X=285.7025 $Y=11.965
Rf766	GNDA#195	GNDA#287	26.534975	$MET1	$L=0.00011295
+ $W=3.2e-07	$X=120.77 $Y=131.98
Rf767	GNDA#287	GNDA#288	41.623314	$MET1	$L=0.000173
+ $W=3.2e-07	$X=207.27 $Y=244.93
Rf768	GNDA#288	GNDA#289	12.489344	$MET1	$L=5.51478e-05
+ $W=3.2e-07	$X=293.7725 $Y=244.93
Rf770	GNDA#289	GNDA#275	13.064522	$MET1	$L=5.76875e-05
+ $W=3.2e-07	$X=293.77 $Y=160.941
Rg1	GNDA#1	GNDA#2	7.783300	$POLY1	$L=5.22e-06	$W=5.03e-06
+ $X=22.235 $Y=158.105
Rg2	GNDA#2	GNDA#3	7.992048	$POLY1	$L=5.57e-06	$W=5.03e-06
+ $X=22.235 $Y=160.715
Rg3	GNDA#4	GNDA#5	7.783300	$POLY1	$L=5.22e-06	$W=5.03e-06
+ $X=22.235 $Y=143.135
Rg4	GNDA#5	GNDA#6	7.992048	$POLY1	$L=5.57e-06	$W=5.03e-06
+ $X=22.235 $Y=145.745
Rg5	BIAS#1	BIAS#2	7.783300	$POLY1	$L=5.22e-06	$W=5.03e-06
+ $X=28.475 $Y=158.105
Rg6	BIAS#2	BIAS#3	7.992048	$POLY1	$L=5.57e-06	$W=5.03e-06
+ $X=28.475 $Y=160.715
Rg7	BIAS#4	BIAS#5	7.783300	$POLY1	$L=5.22e-06	$W=5.03e-06
+ $X=28.475 $Y=143.135
Rg8	BIAS#5	BIAS#6	7.992048	$POLY1	$L=5.57e-06	$W=5.03e-06
+ $X=28.475 $Y=145.745
Rg9	VDDA#1	VDDA#2	7.783300	$POLY1	$L=5.22e-06	$W=5.03e-06
+ $X=29.655 $Y=218.195
Rg10	VDDA#2	VDDA#3	7.992048	$POLY1	$L=5.57e-06	$W=5.03e-06
+ $X=29.655 $Y=220.805
Rg11	VDDA#4	VDDA#5	7.783300	$POLY1	$L=5.22e-06	$W=5.03e-06
+ $X=29.655 $Y=200.135
Rg12	VDDA#5	VDDA#6	7.992048	$POLY1	$L=5.57e-06	$W=5.03e-06
+ $X=29.655 $Y=202.745
Rg13	VDDA#7	VDDA#8	7.783300	$POLY1	$L=5.22e-06	$W=5.03e-06
+ $X=29.655 $Y=182.075
Rg14	VDDA#8	VDDA#9	7.992048	$POLY1	$L=5.57e-06	$W=5.03e-06
+ $X=29.655 $Y=184.685
Rg15	BIAS#7	BIAS#8	7.783300	$POLY1	$L=5.22e-06	$W=5.03e-06
+ $X=34.715 $Y=158.105
Rg16	BIAS#8	BIAS#9	7.992048	$POLY1	$L=5.57e-06	$W=5.03e-06
+ $X=34.715 $Y=160.715
Rg17	BIAS#10	BIAS#11	7.783300	$POLY1	$L=5.22e-06
+ $W=5.03e-06	$X=34.715 $Y=143.135
Rg18	BIAS#11	BIAS#12	7.992048	$POLY1	$L=5.57e-06
+ $W=5.03e-06	$X=34.715 $Y=145.745
Rg19	net1	net1#2	7.783300	$POLY1	$L=5.22e-06	$W=5.03e-06
+ $X=35.895 $Y=218.195
Rg20	net1#2	net1#3	7.992048	$POLY1	$L=5.57e-06	$W=5.03e-06
+ $X=35.895 $Y=220.805
Rg21	net1#4	net1#5	7.783300	$POLY1	$L=5.22e-06	$W=5.03e-06
+ $X=35.895 $Y=200.135
Rg22	net1#5	net1#6	7.992048	$POLY1	$L=5.57e-06	$W=5.03e-06
+ $X=35.895 $Y=202.745
Rg23	net1#7	net1#8	7.783300	$POLY1	$L=5.22e-06	$W=5.03e-06
+ $X=35.895 $Y=182.075
Rg24	net1#8	net1#9	7.992048	$POLY1	$L=5.57e-06	$W=5.03e-06
+ $X=35.895 $Y=184.685
Rg25	BIAS#13	BIAS#14	7.783300	$POLY1	$L=5.22e-06
+ $W=5.03e-06	$X=40.955 $Y=158.105
Rg26	BIAS#14	BIAS#15	7.992048	$POLY1	$L=5.57e-06
+ $W=5.03e-06	$X=40.955 $Y=160.715
Rg27	BIAS#16	BIAS#17	7.783300	$POLY1	$L=5.22e-06
+ $W=5.03e-06	$X=40.955 $Y=143.135
Rg28	BIAS#17	BIAS#18	7.992048	$POLY1	$L=5.57e-06
+ $W=5.03e-06	$X=40.955 $Y=145.745
Rg29	net1#10	net1#11	7.783300	$POLY1	$L=5.22e-06
+ $W=5.03e-06	$X=42.135 $Y=218.195
Rg30	net1#11	net1#12	7.992048	$POLY1	$L=5.57e-06
+ $W=5.03e-06	$X=42.135 $Y=220.805
Rg31	net1#13	net1#14	7.783300	$POLY1	$L=5.22e-06
+ $W=5.03e-06	$X=42.135 $Y=200.135
Rg32	net1#14	net1#15	7.992048	$POLY1	$L=5.57e-06
+ $W=5.03e-06	$X=42.135 $Y=202.745
Rg33	net1#16	net1#17	7.783300	$POLY1	$L=5.22e-06
+ $W=5.03e-06	$X=42.135 $Y=182.075
Rg34	net1#17	net1#18	7.992048	$POLY1	$L=5.57e-06
+ $W=5.03e-06	$X=42.135 $Y=184.685
Rg35	BIAS#19	BIAS#20	7.783300	$POLY1	$L=5.22e-06
+ $W=5.03e-06	$X=47.195 $Y=158.105
Rg36	BIAS#20	BIAS#21	7.992048	$POLY1	$L=5.57e-06
+ $W=5.03e-06	$X=47.195 $Y=160.715
Rg37	BIAS#22	BIAS#23	7.783300	$POLY1	$L=5.22e-06
+ $W=5.03e-06	$X=47.195 $Y=143.135
Rg38	BIAS#23	BIAS#24	7.992048	$POLY1	$L=5.57e-06
+ $W=5.03e-06	$X=47.195 $Y=145.745
Rg39	net1#19	net1#20	7.783300	$POLY1	$L=5.22e-06
+ $W=5.03e-06	$X=48.375 $Y=218.195
Rg40	net1#20	net1#21	7.992048	$POLY1	$L=5.57e-06
+ $W=5.03e-06	$X=48.375 $Y=220.805
Rg41	net1#22	net1#23	7.783300	$POLY1	$L=5.22e-06
+ $W=5.03e-06	$X=48.375 $Y=200.135
Rg42	net1#23	net1#24	7.992048	$POLY1	$L=5.57e-06
+ $W=5.03e-06	$X=48.375 $Y=202.745
Rg43	net1#25	net1#26	7.783300	$POLY1	$L=5.22e-06
+ $W=5.03e-06	$X=48.375 $Y=182.075
Rg44	net1#26	net1#27	7.992048	$POLY1	$L=5.57e-06
+ $W=5.03e-06	$X=48.375 $Y=184.685
Rg45	BIAS#25	BIAS#26	7.783300	$POLY1	$L=5.22e-06
+ $W=5.03e-06	$X=53.435 $Y=158.105
Rg46	BIAS#26	BIAS#27	7.992048	$POLY1	$L=5.57e-06
+ $W=5.03e-06	$X=53.435 $Y=160.715
Rg47	BIAS#28	BIAS#29	7.783300	$POLY1	$L=5.22e-06
+ $W=5.03e-06	$X=53.435 $Y=143.135
Rg48	BIAS#29	BIAS#30	7.992048	$POLY1	$L=5.57e-06
+ $W=5.03e-06	$X=53.435 $Y=145.745
Rg49	net1#28	net1#29	7.783300	$POLY1	$L=5.22e-06
+ $W=5.03e-06	$X=54.615 $Y=218.195
Rg50	net1#29	net1#30	7.992048	$POLY1	$L=5.57e-06
+ $W=5.03e-06	$X=54.615 $Y=220.805
Rg51	net1#31	net1#32	7.783300	$POLY1	$L=5.22e-06
+ $W=5.03e-06	$X=54.615 $Y=200.135
Rg52	net1#32	net1#33	7.992048	$POLY1	$L=5.57e-06
+ $W=5.03e-06	$X=54.615 $Y=202.745
Rg53	net1#34	net1#35	7.783300	$POLY1	$L=5.22e-06
+ $W=5.03e-06	$X=54.615 $Y=182.075
Rg54	net1#35	net1#36	7.992048	$POLY1	$L=5.57e-06
+ $W=5.03e-06	$X=54.615 $Y=184.685
Rg55	GNDA#7	GNDA#8	7.783300	$POLY1	$L=5.22e-06	$W=5.03e-06
+ $X=59.675 $Y=158.105
Rg56	GNDA#8	GNDA#9	7.992048	$POLY1	$L=5.57e-06	$W=5.03e-06
+ $X=59.675 $Y=160.715
Rg57	BIAS#31	BIAS#32	7.783300	$POLY1	$L=5.22e-06
+ $W=5.03e-06	$X=59.675 $Y=143.135
Rg58	BIAS#32	BIAS#33	7.992048	$POLY1	$L=5.57e-06
+ $W=5.03e-06	$X=59.675 $Y=145.745
Rg59	net1#37	net1#38	7.783300	$POLY1	$L=5.22e-06
+ $W=5.03e-06	$X=60.855 $Y=218.195
Rg60	net1#38	net1#39	7.992048	$POLY1	$L=5.57e-06
+ $W=5.03e-06	$X=60.855 $Y=220.805
Rg61	net1#40	net1#41	7.783300	$POLY1	$L=5.22e-06
+ $W=5.03e-06	$X=60.855 $Y=200.135
Rg62	net1#41	net1#42	7.992048	$POLY1	$L=5.57e-06
+ $W=5.03e-06	$X=60.855 $Y=202.745
Rg63	net1#43	net1#44	7.783300	$POLY1	$L=5.22e-06
+ $W=5.03e-06	$X=60.855 $Y=182.075
Rg64	net1#44	net1#45	7.992048	$POLY1	$L=5.57e-06
+ $W=5.03e-06	$X=60.855 $Y=184.685
Rg71	DEL	DEL#8	3.801719	$POLY1	$L=5.058e-05	$W=5.003e-05
+ $X=40.895 $Y=112.445
Rg78	DEL#9	DEL#16	3.801719	$POLY1	$L=5.058e-05	$W=5.003e-05
+ $X=40.895 $Y=54.605
Rg79	GNDA#10	GNDA#11	7.783300	$POLY1	$L=5.22e-06
+ $W=5.03e-06	$X=65.915 $Y=158.105
Rg80	GNDA#11	GNDA#12	7.992048	$POLY1	$L=5.57e-06
+ $W=5.03e-06	$X=65.915 $Y=160.715
Rg81	GNDA#13	GNDA#14	7.783300	$POLY1	$L=5.22e-06
+ $W=5.03e-06	$X=65.915 $Y=143.135
Rg82	GNDA#14	GNDA#15	7.992048	$POLY1	$L=5.57e-06
+ $W=5.03e-06	$X=65.915 $Y=145.745
Rg83	net1#46	net1#47	7.783300	$POLY1	$L=5.22e-06
+ $W=5.03e-06	$X=67.095 $Y=218.195
Rg84	net1#47	net1#48	7.992048	$POLY1	$L=5.57e-06
+ $W=5.03e-06	$X=67.095 $Y=220.805
Rg85	net1#49	net1#50	7.783300	$POLY1	$L=5.22e-06
+ $W=5.03e-06	$X=67.095 $Y=200.135
Rg86	net1#50	net1#51	7.992048	$POLY1	$L=5.57e-06
+ $W=5.03e-06	$X=67.095 $Y=202.745
Rg87	net1#52	net1#53	7.783300	$POLY1	$L=5.22e-06
+ $W=5.03e-06	$X=67.095 $Y=182.075
Rg88	net1#53	net1#54	7.992048	$POLY1	$L=5.57e-06
+ $W=5.03e-06	$X=67.095 $Y=184.685
Rg89	net1#55	net1#56	7.783300	$POLY1	$L=5.22e-06
+ $W=5.03e-06	$X=73.335 $Y=218.195
Rg90	net1#56	net1#57	7.992048	$POLY1	$L=5.57e-06
+ $W=5.03e-06	$X=73.335 $Y=220.805
Rg91	net1#58	net1#59	7.783300	$POLY1	$L=5.22e-06
+ $W=5.03e-06	$X=73.335 $Y=200.135
Rg92	net1#59	net1#60	7.992048	$POLY1	$L=5.57e-06
+ $W=5.03e-06	$X=73.335 $Y=202.745
Rg93	net1#61	net1#62	7.783300	$POLY1	$L=5.22e-06
+ $W=5.03e-06	$X=73.335 $Y=182.075
Rg94	net1#62	net1#63	7.992048	$POLY1	$L=5.57e-06
+ $W=5.03e-06	$X=73.335 $Y=184.685
Rg95	VDDA#10	VDDA#11	7.783300	$POLY1	$L=5.22e-06
+ $W=5.03e-06	$X=79.575 $Y=218.195
Rg96	VDDA#11	VDDA#12	7.992048	$POLY1	$L=5.57e-06
+ $W=5.03e-06	$X=79.575 $Y=220.805
Rg97	VDDA#13	VDDA#14	7.783300	$POLY1	$L=5.22e-06
+ $W=5.03e-06	$X=79.575 $Y=200.135
Rg98	VDDA#14	VDDA#15	7.992048	$POLY1	$L=5.57e-06
+ $W=5.03e-06	$X=79.575 $Y=202.745
Rg99	net1#64	net1#65	7.783300	$POLY1	$L=5.22e-06
+ $W=5.03e-06	$X=79.575 $Y=182.075
Rg100	net1#65	net1#66	7.992048	$POLY1	$L=5.57e-06
+ $W=5.03e-06	$X=79.575 $Y=184.685
Rg101	BG_REF#1	BG_REF#2	31.415094	$POLY1	$L=2.22e-06
+ $W=5.3e-07	$X=81.94 $Y=162.39
Rg102	BG_REF#2	BG_REF#3	33.396225	$POLY1	$L=2.57e-06
+ $W=5.3e-07	$X=81.94 $Y=163.5
Rg103	C	C#2	31.415094	$POLY1	$L=2.22e-06	$W=5.3e-07
+ $X=83.68 $Y=162.39
Rg104	C#2	C#3	33.396225	$POLY1	$L=2.57e-06	$W=5.3e-07
+ $X=83.68 $Y=163.5
Rg105	net10	net10#2	4.055666	$POLY1	$L=2.72e-06
+ $W=5.03e-06	$X=82.14 $Y=140.61
Rg106	net10#2	net10#3	4.264413	$POLY1	$L=3.07e-06
+ $W=5.03e-06	$X=82.14 $Y=144.65
Rg107	VDDA#16	VDDA#17	7.783300	$POLY1	$L=5.22e-06
+ $W=5.03e-06	$X=85.815 $Y=218.195
Rg108	VDDA#17	VDDA#18	7.992048	$POLY1	$L=5.57e-06
+ $W=5.03e-06	$X=85.815 $Y=220.805
Rg109	VDDA#19	VDDA#20	7.783300	$POLY1	$L=5.22e-06
+ $W=5.03e-06	$X=85.815 $Y=200.135
Rg110	VDDA#20	VDDA#21	7.992048	$POLY1	$L=5.57e-06
+ $W=5.03e-06	$X=85.815 $Y=202.745
Rg111	VDDA#22	VDDA#23	7.783300	$POLY1	$L=5.22e-06
+ $W=5.03e-06	$X=85.815 $Y=182.075
Rg112	VDDA#23	VDDA#24	7.992048	$POLY1	$L=5.57e-06
+ $W=5.03e-06	$X=85.815 $Y=184.685
Rg113	net10#4	net10#5	4.055666	$POLY1	$L=2.72e-06
+ $W=5.03e-06	$X=88.38 $Y=140.61
Rg114	net10#5	net10#6	4.264413	$POLY1	$L=3.07e-06
+ $W=5.03e-06	$X=88.38 $Y=144.65
Rg115	A	A#2	53.684208	$POLY1	$L=2.72e-06	$W=3.8e-07
+ $X=93.65 $Y=157.575
Rg116	A#2	A#3	56.802631	$POLY1	$L=2.86e-06	$W=3.8e-07
+ $X=93.6675 $Y=158.935
Rg117	A#3	A#4	14.000001	$POLY1	$L=8.2e-07	$W=4.5e-07
+ $X=94.095 $Y=161.795
Rg118	A#4	A#5	56.802631	$POLY1	$L=2.86e-06	$W=3.8e-07
+ $X=94.5225 $Y=161.795
Rg119	A#5	A#6	53.684208	$POLY1	$L=2.72e-06	$W=3.8e-07
+ $X=94.54 $Y=158.935
Rg120	DEL#17	DEL#18	20.340910	$POLY1	$L=8.95e-07	$W=3.3e-07
+ $X=99.59 $Y=159.3775
Rg121	DEL#18	DEL#19	24.881899	$POLY1	$L=1.13975e-06	$W=3.3e-07
+ $X=99.59 $Y=158.93
Rg122	DEL#19	DEL#20	10.349702	$POLY1	$L=6.1025e-07	$W=4.5e-07
+ $X=99.285 $Y=157.79
Rg123	DEL#20	DEL#21	4.840774	$POLY1	$L=2.7975e-07	$W=4.5e-07
+ $X=98.84 $Y=157.79
Rg124	DEL#21	DEL#22	17.546577	$POLY1	$L=9.0525e-07	$W=3.8e-07
+ $X=98.7 $Y=157.79
Rg125	DEL#19	DEL#23	18.632103	$POLY1	$L=9.6025e-07	$W=3.8e-07
+ $X=99.59 $Y=157.79
Rg126	DEL#23	DEL#24	10.756579	$POLY1	$L=5.45e-07	$W=3.8e-07
+ $X=99.59 $Y=156.83
Rg127	DEL#19	DEL#25	3.082441	$POLY1	$L=1.7475e-07	$W=4.5e-07
+ $X=99.677 $Y=157.79
Rg128	DEL#21	DEL#26	3.099702	$POLY1	$L=1.7525e-07	$W=4.5e-07
+ $X=98.6125 $Y=157.79
Rg129	DEL#21	DEL#27	25.563719	$POLY1	$L=1.16975e-06	$W=3.3e-07
+ $X=98.7 $Y=157.79
Rg130	DEL#27	DEL#28	21.022726	$POLY1	$L=9.25e-07	$W=3.3e-07
+ $X=98.7 $Y=158.96
Rg131	DEL#22	DEL#29	11.842105	$POLY1	$L=6e-07	$W=3.8e-07
+ $X=98.7 $Y=156.885
Rg132	XI0/net31	XI0/net31#2	21.022726	$POLY1	$L=9.25e-07
+ $W=3.3e-07	$X=106.87 $Y=159.4225
Rg133	XI0/net31#2	XI0/net31#3	27.039204	$POLY1	$L=1.17475e-06
+ $W=3.3e-07	$X=106.87 $Y=158.96
Rg134	XI0/net31#3	XI0/net31#4	20.909092	$POLY1	$L=8.9e-07
+ $W=3.3e-07	$X=106.425 $Y=157.785
Rg135	XI0/net31#4	XI0/net31#5	21.471590	$POLY1	$L=9.175e-07
+ $W=3.3e-07	$X=105.5215 $Y=157.785
Rg136	XI0/net31#5	XI0/net31#6	20.784090	$POLY1	$L=8.9e-07
+ $W=3.3e-07	$X=104.6175 $Y=157.785
Rg137	XI0/net31#6	XI0/net31#7	52.035774	$POLY1	$L=2.30275e-06
+ $W=3.3e-07	$X=103.021 $Y=157.785
Rg138	XI0/net31#7	XI0/net31#8	13.541666	$POLY1	$L=1.245e-06
+ $W=4.5e-07	$X=101.47 $Y=157.79
Rg139	XI0/net31#3	XI0/net31#9	15.038072	$POLY1	$L=7.4525e-07
+ $W=3.8e-07	$X=106.87 $Y=157.785
Rg140	XI0/net31#9	XI0/net31#10	10.855263	$POLY1	$L=5.5e-07
+ $W=3.8e-07	$X=106.87 $Y=157.04
Rg141	XI0/net31#3	XI0/net31#11	4.300568	$POLY1	$L=1.7475e-07
+ $W=3.3e-07	$X=106.957 $Y=157.785
Rg142	XI0/net31#4	XI0/net31#12	15.038072	$POLY1	$L=7.4525e-07
+ $W=3.8e-07	$X=105.98 $Y=157.785
Rg143	XI0/net31#12	XI0/net31#13	10.855263	$POLY1	$L=5.5e-07
+ $W=3.8e-07	$X=105.98 $Y=157.04
Rg144	XI0/net31#4	XI0/net31#14	27.039204	$POLY1	$L=1.17475e-06
+ $W=3.3e-07	$X=105.98 $Y=157.785
Rg145	XI0/net31#14	XI0/net31#15	21.022726	$POLY1	$L=9.25e-07
+ $W=3.3e-07	$X=105.98 $Y=158.96
Rg146	XI0/net31#5	XI0/net31#16	15.548455	$POLY1	$L=7.4525e-07
+ $W=3.8e-07	$X=105.036 $Y=157.785
Rg147	XI0/net31#16	XI0/net31#17	10.855263	$POLY1	$L=5.5e-07
+ $W=3.8e-07	$X=105.01 $Y=157.04
Rg148	XI0/net31#5	XI0/net31#18	27.269648	$POLY1	$L=1.17475e-06
+ $W=3.3e-07	$X=105.076 $Y=157.785
Rg149	XI0/net31#18	XI0/net31#19	21.022726	$POLY1	$L=9.25e-07
+ $W=3.3e-07	$X=105.09 $Y=158.96
Rg150	XI0/net31#6	XI0/net31#20	15.548455	$POLY1	$L=7.4525e-07
+ $W=3.8e-07	$X=104.146 $Y=157.785
Rg151	XI0/net31#20	XI0/net31#21	10.855263	$POLY1	$L=5.5e-07
+ $W=3.8e-07	$X=104.12 $Y=157.04
Rg152	XI0/net31#6	XI0/net31#22	27.269648	$POLY1	$L=1.17475e-06
+ $W=3.3e-07	$X=104.186 $Y=157.785
Rg153	XI0/net31#22	XI0/net31#23	21.022726	$POLY1	$L=9.25e-07
+ $W=3.3e-07	$X=104.2 $Y=158.96
Rg154	XI0/net31#7	XI0/net31#24	16.934212	$POLY1	$L=8.4e-07
+ $W=3.8e-07	$X=101.87 $Y=157.79
Rg155	XI0/net31#24	XI0/net31#25	13.125000	$POLY1	$L=6.65e-07
+ $W=3.8e-07	$X=101.87 $Y=156.95
Rg156	XI0/net31#7	XI0/net31#26	23.447369	$POLY1	$L=1.17e-06
+ $W=3.8e-07	$X=101.87 $Y=157.79
Rg157	XI0/net31#26	XI0/net31#27	18.256578	$POLY1	$L=9.25e-07
+ $W=3.8e-07	$X=101.87 $Y=158.96
Rg164	DEL#30	DEL#37	3.801719	$POLY1	$L=5.058e-05	$W=5.003e-05
+ $X=93.895 $Y=112.445
Rg171	DEL#38	DEL#45	3.801719	$POLY1	$L=5.058e-05	$W=5.003e-05
+ $X=93.895 $Y=54.605
Rg172	C#4	C#5	1.023573	$POLY1	$L=7.6e-07	$W=4.03e-06
+ $X=124.2 $Y=136.5095
Rg179	DEL#46	DEL#53	3.801719	$POLY1	$L=5.058e-05	$W=5.003e-05
+ $X=146.895 $Y=112.445
Rg186	DEL#54	DEL#61	3.801719	$POLY1	$L=5.058e-05	$W=5.003e-05
+ $X=146.895 $Y=54.605
Rg193	DEL#62	DEL#69	3.801719	$POLY1	$L=5.058e-05	$W=5.003e-05
+ $X=199.895 $Y=112.445
Rg200	DEL#70	DEL#77	3.801719	$POLY1	$L=5.058e-05	$W=5.003e-05
+ $X=199.895 $Y=54.605
Rg207	DEL#78	DEL#85	3.801719	$POLY1	$L=5.058e-05	$W=5.003e-05
+ $X=252.895 $Y=112.445
Rg214	DEL#86	DEL#93	3.801719	$POLY1	$L=5.058e-05	$W=5.003e-05
+ $X=252.895 $Y=54.605
Rg215	VDDA#25	VDDA#26	1.023573	$POLY1	$L=7.6e-07
+ $W=4.03e-06	$X=290.34 $Y=136.5095
Rg216	C#6	C#7	1.023573	$POLY1	$L=7.6e-07	$W=4.03e-06
+ $X=303 $Y=14.8095
Rg217	GNDA#16	GNDA#17	1.023573	$POLY1	$L=7.6e-07
+ $W=4.03e-06	$X=383.94 $Y=14.8095
Rcb2	GNDA#26	GNDA#28	2.500000	$cont	$A=1.452e-13
+ $N=3	$X=19.465 $Y=165.03
Rcb4	GNDA#33	GNDA#35	2.500000	$cont	$A=1.452e-13
+ $N=3	$X=19.465 $Y=150.06
Rcb6	GNDA#40	GNDA#42	2.500000	$cont	$A=1.452e-13
+ $N=3	$X=25.005 $Y=165.03
Rcb8	GNDA#45	GNDA#47	2.500000	$cont	$A=1.452e-13
+ $N=3	$X=25.005 $Y=150.06
Rcb10	GNDA#50	GNDA#52	2.500000	$cont	$A=1.452e-13
+ $N=3	$X=25.705 $Y=165.03
Rcb12	GNDA#55	GNDA#57	2.500000	$cont	$A=1.452e-13
+ $N=3	$X=25.705 $Y=150.06
Rcb14	BIAS#46	BIAS#48	2.500000	$cont	$A=1.452e-13
+ $N=3	$X=31.245 $Y=165.03
Rcb16	BIAS#51	BIAS#53	2.500000	$cont	$A=1.452e-13
+ $N=3	$X=31.245 $Y=150.06
Rcb18	GNDA#60	GNDA#62	2.500000	$cont	$A=1.452e-13
+ $N=3	$X=31.945 $Y=165.03
Rcb20	GNDA#65	GNDA#67	2.500000	$cont	$A=1.452e-13
+ $N=3	$X=31.945 $Y=150.06
Rcb22	BIAS#66	BIAS#68	2.500000	$cont	$A=1.452e-13
+ $N=3	$X=37.485 $Y=165.03
Rcb24	BIAS#71	BIAS#73	2.500000	$cont	$A=1.452e-13
+ $N=3	$X=37.485 $Y=150.06
Rcb26	GNDA#70	GNDA#72	2.500000	$cont	$A=1.452e-13
+ $N=3	$X=38.185 $Y=165.03
Rcb28	GNDA#75	GNDA#77	2.500000	$cont	$A=1.452e-13
+ $N=3	$X=38.185 $Y=150.06
Rcb30	BIAS#86	BIAS#88	2.500000	$cont	$A=1.452e-13
+ $N=3	$X=43.725 $Y=165.03
Rcb32	net1#89	net1#91	2.500000	$cont	$A=1.452e-13
+ $N=3	$X=43.725 $Y=150.06
Rcb34	GNDA#80	GNDA#82	2.500000	$cont	$A=1.452e-13
+ $N=3	$X=44.425 $Y=165.03
Rcb36	GNDA#85	GNDA#87	2.500000	$cont	$A=1.452e-13
+ $N=3	$X=44.425 $Y=150.06
Rcb38	BIAS#101	BIAS#103	2.500000	$cont	$A=1.452e-13
+ $N=3	$X=49.965 $Y=165.03
Rcb40	BIAS#106	BIAS#108	2.500000	$cont	$A=1.452e-13
+ $N=3	$X=49.965 $Y=150.06
Rcb42	GNDA#90	GNDA#92	2.500000	$cont	$A=1.452e-13
+ $N=3	$X=50.665 $Y=165.03
Rcb44	GNDA#95	GNDA#97	2.500000	$cont	$A=1.452e-13
+ $N=3	$X=50.665 $Y=150.06
Rcb46	BIAS#121	BIAS#123	2.500000	$cont	$A=1.452e-13
+ $N=3	$X=56.205 $Y=165.03
Rcb48	BIAS#126	BIAS#128	2.500000	$cont	$A=1.452e-13
+ $N=3	$X=56.205 $Y=150.06
Rcb50	GNDA#100	GNDA#102	2.500000	$cont	$A=1.452e-13
+ $N=3	$X=56.905 $Y=150.06
Rcb52	BIAS#136	BIAS#138	2.500000	$cont	$A=1.452e-13
+ $N=3	$X=62.445 $Y=150.06
Rcb54	GNDA#105	GNDA#107	2.500000	$cont	$A=1.452e-13
+ $N=3	$X=63.145 $Y=150.06
Rcb56	GNDA#122	GNDA#124	2.500000	$cont	$A=1.452e-13
+ $N=3	$X=56.905 $Y=165.03
Rcb57	GNDA#128	GNDA#127	2.500000	$cont	$A=1.452e-13
+ $N=3	$X=62.445 $Y=165.03
Rcb59	GNDA#134	GNDA#127	2.500000	$cont	$A=1.452e-13
+ $N=3	$X=63.145 $Y=165.03
Rcb61	GNDA#141	GNDA#140	2.500000	$cont	$A=1.452e-13
+ $N=3	$X=68.685 $Y=165.03
Rcb64	GNDA#148	GNDA#150	2.500000	$cont	$A=1.452e-13
+ $N=3	$X=68.685 $Y=150.06
Rcb65	A#13	A#14	0.750000	$cont	$A=4.84e-13	$N=10
+ $X=84.91 $Y=143.22
Rcb66	net10#25	net10#26	0.750000	$cont	$A=4.84e-13
+ $N=10	$X=91.15 $Y=143.22
Rcb67	DEL#123	DEL#124	0.750000	$cont	$A=4.84e-13
+ $N=10	$X=94.095 $Y=158.935
Rcb68	XI0/net39	XI0/net39#2	7.500000	$cont	$L=2.2e-07
+ $W=2.2e-07	$A=4.84e-14	$N=1.0000	$X=101.325 $Y=156.765
Rcb69	XI0/net39#5	XI0/net39#4	7.500000	$cont	$L=2.2e-07
+ $W=2.2e-07	$A=4.84e-14	$N=1.0000	$X=99.145 $Y=156.8
Rcb70	XI0/net31#32	XI0/net31#31	7.500000	$cont	$L=2.2e-07
+ $W=2.2e-07	$A=4.84e-14	$N=1.0000	$X=98.255 $Y=156.98
Rcb71	VDDA#277	VDDA#271	7.500000	$cont	$L=2.2e-07
+ $W=2.2e-07	$A=4.84e-14	$N=1.0000	$X=102.355 $Y=157.185
Rcb72	POR_OUT_L#2	POR_OUT_L#1	7.500000	$cont	$L=2.2e-07
+ $W=2.2e-07	$A=4.84e-14	$N=1.0000	$X=104.565 $Y=157.16
Rcb73	POR_OUT_L#8	POR_OUT_L#1	7.500000	$cont	$L=2.2e-07
+ $W=2.2e-07	$A=4.84e-14	$N=1.0000	$X=106.425 $Y=157.16
Rcb74	GNDA#196	GNDA#195	7.500000	$cont	$L=2.2e-07
+ $W=2.2e-07	$A=4.84e-14	$N=1.0000	$X=107.395 $Y=156.655
Rcb75	GNDA#229	GNDA#195	7.500000	$cont	$L=2.2e-07
+ $W=2.2e-07	$A=4.84e-14	$N=1.0000	$X=105.495 $Y=156.655
Rcb76	GNDA#232	GNDA#195	7.500000	$cont	$L=2.2e-07
+ $W=2.2e-07	$A=4.84e-14	$N=1.0000	$X=103.675 $Y=157.06
Rcb77	GNDA#239	GNDA#195	7.500000	$cont	$L=2.2e-07
+ $W=2.2e-07	$A=4.84e-14	$N=1.0000	$X=100.075 $Y=156.385
Rcb78	GNDA#248	GNDA#249	0.750000	$cont	$A=4.84e-13
+ $N=10	$X=94.985 $Y=158.935
Rcb79	GNDA#252	GNDA#253	0.750000	$cont	$A=4.84e-13
+ $N=10	$X=85.61 $Y=143.22
Rcb80	GNDA#256	GNDA#257	0.750000	$cont	$A=4.84e-13
+ $N=10	$X=79.37 $Y=143.22
Rcb81	GNDA#272	GNDA#273	0.750000	$cont	$A=4.84e-13
+ $N=10	$X=93.205 $Y=158.935
Rcb_1_1	GNDA#3	GNDA#30	0.750000	$cont	$A=4.84e-13	$N=10
+ $X=22.235 $Y=166.075
Rcb_1_2	GNDA#6	GNDA#37	0.750000	$cont	$A=4.84e-13	$N=10
+ $X=22.235 $Y=151.105
Rcb_1_3	BIAS#3	BIAS#34	0.750000	$cont	$A=4.84e-13	$N=10
+ $X=28.475 $Y=166.075
Rcb_1_4	BIAS#6	BIAS#39	0.750000	$cont	$A=4.84e-13	$N=10
+ $X=28.475 $Y=151.105
Rcb_1_5	VDDA#3	VDDA#44	0.750000	$cont	$A=4.84e-13	$N=10
+ $X=29.655 $Y=226.165
Rcb_1_6	VDDA#6	VDDA#49	0.750000	$cont	$A=4.84e-13	$N=10
+ $X=29.655 $Y=208.105
Rcb_1_7	VDDA#9	VDDA#54	0.750000	$cont	$A=4.84e-13	$N=10
+ $X=29.655 $Y=190.045
Rcb_1_8	BIAS#9	BIAS#54	0.750000	$cont	$A=4.84e-13	$N=10
+ $X=34.715 $Y=166.075
Rcb_1_9	BIAS#12	BIAS#59	0.750000	$cont	$A=4.84e-13
+ $N=10	$X=34.715 $Y=151.105
Rcb_1_10	net1#3	net1#69	0.750000	$cont	$A=4.84e-13
+ $N=10	$X=35.895 $Y=226.165
Rcb_1_11	net1#6	net1#74	0.750000	$cont	$A=4.84e-13
+ $N=10	$X=35.895 $Y=208.105
Rcb_1_12	net1#9	net1#79	0.750000	$cont	$A=4.84e-13
+ $N=10	$X=35.895 $Y=190.045
Rcb_1_13	BIAS#15	BIAS#74	0.750000	$cont
+ $A=4.84e-13	$N=10	$X=40.955 $Y=166.075
Rcb_1_14	BIAS#18	BIAS#79	0.750000	$cont
+ $A=4.84e-13	$N=10	$X=40.955 $Y=151.105
Rcb_1_15	net1#12	net1#94	0.750000	$cont
+ $A=4.84e-13	$N=10	$X=42.135 $Y=226.165
Rcb_1_16	net1#15	net1#99	0.750000	$cont
+ $A=4.84e-13	$N=10	$X=42.135 $Y=208.105
Rcb_1_17	net1#18	net1#104	0.750000	$cont
+ $A=4.84e-13	$N=10	$X=42.135 $Y=190.045
Rcb_1_18	BIAS#21	BIAS#89	0.750000	$cont
+ $A=4.84e-13	$N=10	$X=47.195 $Y=166.075
Rcb_1_19	BIAS#24	BIAS#94	0.750000	$cont
+ $A=4.84e-13	$N=10	$X=47.195 $Y=151.105
Rcb_1_20	net1#21	net1#119	0.750000	$cont
+ $A=4.84e-13	$N=10	$X=48.375 $Y=226.165
Rcb_1_21	net1#24	net1#124	0.750000	$cont
+ $A=4.84e-13	$N=10	$X=48.375 $Y=208.105
Rcb_1_22	net1#27	net1#129	0.750000	$cont
+ $A=4.84e-13	$N=10	$X=48.375 $Y=190.045
Rcb_1_23	BIAS#27	BIAS#109	0.750000	$cont
+ $A=4.84e-13	$N=10	$X=53.435 $Y=166.075
Rcb_1_24	BIAS#30	BIAS#114	0.750000	$cont
+ $A=4.84e-13	$N=10	$X=53.435 $Y=151.105
Rcb_1_25	net1#30	net1#134	0.750000	$cont
+ $A=4.84e-13	$N=10	$X=54.615 $Y=226.165
Rcb_1_26	net1#33	net1#139	0.750000	$cont
+ $A=4.84e-13	$N=10	$X=54.615 $Y=208.105
Rcb_1_27	net1#36	net1#144	0.750000	$cont
+ $A=4.84e-13	$N=10	$X=54.615 $Y=190.045
Rcb_1_28	BIAS#33	BIAS#129	0.750000	$cont
+ $A=4.84e-13	$N=10	$X=59.675 $Y=151.105
Rcb_1_29	net1#39	net1#159	0.750000	$cont
+ $A=4.84e-13	$N=10	$X=60.855 $Y=226.165
Rcb_1_30	net1#42	net1#164	0.750000	$cont
+ $A=4.84e-13	$N=10	$X=60.855 $Y=208.105
Rcb_1_31	net1#45	net1#169	0.750000	$cont
+ $A=4.84e-13	$N=10	$X=60.855 $Y=190.045
Rcb_1_37	DEL	DEL#107	0.681818	$cont	$A=5.324e-13
+ $N=11	$X=63.335 $Y=125.125
Rcb_1_43	DEL#9	DEL#116	0.681818	$cont	$A=5.324e-13
+ $N=11	$X=63.335 $Y=67.285
Rcb_1_44	GNDA#9	GNDA#126	0.750000	$cont	$A=4.84e-13
+ $N=10	$X=59.675 $Y=166.075
Rcb_1_45	GNDA#12	GNDA#139	0.750000	$cont
+ $A=4.84e-13	$N=10	$X=65.915 $Y=166.075
Rcb_1_46	GNDA#15	GNDA#152	0.750000	$cont
+ $A=4.84e-13	$N=10	$X=65.915 $Y=151.105
Rcb_1_47	net1#48	net1#179	0.750000	$cont
+ $A=4.84e-13	$N=10	$X=67.095 $Y=226.165
Rcb_1_48	net1#51	net1#184	0.750000	$cont
+ $A=4.84e-13	$N=10	$X=67.095 $Y=208.105
Rcb_1_49	net1#54	net1#189	0.750000	$cont
+ $A=4.84e-13	$N=10	$X=67.095 $Y=190.045
Rcb_1_50	net1#57	net1#204	0.750000	$cont
+ $A=4.84e-13	$N=10	$X=73.335 $Y=226.165
Rcb_1_51	net1#60	net1#209	0.750000	$cont
+ $A=4.84e-13	$N=10	$X=73.335 $Y=208.105
Rcb_1_52	net1#63	net1#214	0.750000	$cont
+ $A=4.84e-13	$N=10	$X=73.335 $Y=190.045
Rcb_1_53	VDDA#12	VDDA#194	0.750000	$cont
+ $A=4.84e-13	$N=10	$X=79.575 $Y=226.165
Rcb_1_54	VDDA#15	VDDA#199	0.750000	$cont
+ $A=4.84e-13	$N=10	$X=79.575 $Y=208.105
Rcb_1_55	net1#66	net1#224	0.750000	$cont
+ $A=4.84e-13	$N=10	$X=79.575 $Y=190.045
Rcb_1_56	BG_REF#3	BG_REF#4	7.500000	$cont
+ $L=2.2e-07	$W=2.2e-07	$A=4.84e-14	$N=1.0000
+ $X=81.94 $Y=165.86
Rcb_1_57	C#3	C#8	7.500000	$cont	$L=2.2e-07
+ $W=2.2e-07	$A=4.84e-14	$N=1.0000	$X=83.68 $Y=165.86
Rcb_1_58	net10#3	net10#12	0.750000	$cont
+ $A=4.84e-13	$N=10	$X=82.14 $Y=146.08
Rcb_1_59	VDDA#18	VDDA#229	0.750000	$cont
+ $A=4.84e-13	$N=10	$X=85.815 $Y=226.165
Rcb_1_60	VDDA#21	VDDA#234	0.750000	$cont
+ $A=4.84e-13	$N=10	$X=85.815 $Y=208.105
Rcb_1_61	VDDA#24	VDDA#239	0.750000	$cont
+ $A=4.84e-13	$N=10	$X=85.815 $Y=190.045
Rcb_1_62	net10#6	net10#18	0.750000	$cont
+ $A=4.84e-13	$N=10	$X=88.38 $Y=146.08
Rcb_1_63	A#4	A#15	7.500000	$cont	$L=2.2e-07
+ $W=2.2e-07	$A=4.84e-14	$N=1.0000	$X=94.505 $Y=161.795
Rcb_1_64	A#3	A#15	7.500000	$cont	$L=2.2e-07
+ $W=2.2e-07	$A=4.84e-14	$N=1.0000	$X=93.685 $Y=161.795
Rcb_1_65	DEL#20	DEL#127	3.750000	$cont	$A=9.68e-14
+ $N=2	$X=98.98 $Y=157.79
Rcb_1_66	XI0/net31#8	XI0/net31#28	3.750000	$cont
+ $A=9.68e-14	$N=2	$X=101.07 $Y=157.79
Rcb_1_72	DEL#30	DEL#137	0.681818	$cont	$A=5.324e-13
+ $N=11	$X=116.335 $Y=125.125
Rcb_1_78	DEL#38	DEL#146	0.681818	$cont	$A=5.324e-13
+ $N=11	$X=116.335 $Y=67.285
Rcb_1_79	C#5	C#13	0.937500	$cont	$A=3.872e-13	$N=8
+ $X=124.2 $Y=136.235
Rcb_1_85	DEL#46	DEL#155	0.681818	$cont	$A=5.324e-13
+ $N=11	$X=169.335 $Y=125.125
Rcb_1_91	DEL#54	DEL#164	0.681818	$cont	$A=5.324e-13
+ $N=11	$X=169.335 $Y=67.285
Rcb_1_97	DEL#62	DEL#173	0.681818	$cont	$A=5.324e-13
+ $N=11	$X=222.335 $Y=125.125
Rcb_1_103	DEL#70	DEL#182	0.681818	$cont	$A=5.324e-13
+ $N=11	$X=222.335 $Y=67.285
Rcb_1_109	DEL#78	DEL#191	0.681818	$cont	$A=5.324e-13
+ $N=11	$X=275.335 $Y=125.125
Rcb_1_115	DEL#86	DEL#200	0.681818	$cont	$A=5.324e-13
[...]
C1398	VDDA#127	GNDA	2.00692e-17	$X=51.8445 $Y=178.2985
C1399	VDDA#131	GNDA	2.73246e-17	$X=51.8445 $Y=188.965
C1400	BIAS#113	GNDA	3.2376e-17	$X=55.3215 $Y=166.0745
C1401	BIAS#109	GNDA	1.36162e-16	$X=53.4345 $Y=167.014
C1402	BIAS#117	GNDA	4.18456e-18	$X=51.547 $Y=151.1045
C1403	BIAS#118	GNDA	4.18456e-18	$X=55.3215 $Y=151.1045
C1404	BIAS#114	GNDA	1.34705e-16	$X=53.4345 $Y=152.044
C1405	BIAS#119	GNDA	2.74222e-16	$X=56.2045 $Y=153.0385
C1406	BIAS#123	GNDA	1.32179e-16	$X=56.2045 $Y=164.995
C1407	BIAS#124	GNDA	3.06082e-16	$X=56.2045 $Y=138.0535
C1408	BIAS#128	GNDA	1.14736e-16	$X=56.2045 $Y=150.025
C1409	net1#135	GNDA	3.95471e-17	$X=52.727 $Y=226.1645
C1410	net1#136	GNDA	3.95471e-17	$X=56.5015 $Y=226.1645
C1411	net1#132	GNDA	6.8978e-17	$X=54.6145 $Y=228.292
C1412	net1#134	GNDA	1.47847e-16	$X=54.6145 $Y=226.6615
C1413	net1#140	GNDA	3.29861e-17	$X=52.727 $Y=208.1045
C1414	net1#141	GNDA	3.29861e-17	$X=56.5015 $Y=208.1045
C1415	net1#137	GNDA	8.49497e-17	$X=54.6145 $Y=210.562
C1416	net1#139	GNDA	1.23345e-16	$X=54.6145 $Y=208.7115
C1417	net1#145	GNDA	3.29861e-17	$X=52.727 $Y=190.0445
C1418	net1#146	GNDA	3.29861e-17	$X=56.5015 $Y=190.0445
C1419	net1#142	GNDA	8.50204e-17	$X=54.6145 $Y=192.502
C1420	net1#144	GNDA	1.38385e-16	$X=54.6145 $Y=190.6515
C1421	net1#147	GNDA	2.27145e-17	$X=57.3845 $Y=212.1685
C1422	net1#151	GNDA	2.34683e-17	$X=57.3845 $Y=225.0855
C1423	net9#26	GNDA	2.00692e-17	$X=57.3845 $Y=195.0685
C1424	net9#30	GNDA	2.73246e-17	$X=57.3845 $Y=207.025
C1425	net1#152	GNDA	6.32154e-17	$X=57.3845 $Y=176.3785
C1426	net1#156	GNDA	1.96014e-17	$X=57.3845 $Y=188.965
C1427	VDDA#132	GNDA	1.98902e-17	$X=58.0845 $Y=214.0885
C1428	VDDA#136	GNDA	3.37219e-17	$X=58.0845 $Y=225.0855
C1429	VDDA#137	GNDA	1.98902e-17	$X=58.0845 $Y=196.0285
C1430	VDDA#141	GNDA	2.73246e-17	$X=58.0845 $Y=207.025
C1431	VDDA#142	GNDA	5.13305e-17	$X=58.0845 $Y=178.2985
C1432	VDDA#146	GNDA	2.73246e-17	$X=58.0845 $Y=188.965
C1433	BIAS#132	GNDA	4.18456e-18	$X=57.787 $Y=151.1045
C1434	BIAS#133	GNDA	2.48628e-17	$X=61.5615 $Y=151.1045
C1435	BIAS#129	GNDA	1.36527e-16	$X=59.6745 $Y=152.044
C1436	BIAS#134	GNDA	3.06082e-16	$X=62.4445 $Y=138.0535
C1437	BIAS#138	GNDA	1.24921e-16	$X=62.4445 $Y=150.025
C1438	net1#160	GNDA	3.95471e-17	$X=58.967 $Y=226.1645
C1439	net1#161	GNDA	3.95471e-17	$X=62.7415 $Y=226.1645
C1440	net1#157	GNDA	6.8978e-17	$X=60.8545 $Y=228.292
C1441	net1#159	GNDA	1.47847e-16	$X=60.8545 $Y=226.6615
C1442	net1#165	GNDA	3.29861e-17	$X=58.967 $Y=208.1045
C1443	net1#166	GNDA	3.29861e-17	$X=62.7415 $Y=208.1045
C1444	net1#162	GNDA	8.49497e-17	$X=60.8545 $Y=210.562
C1445	net1#164	GNDA	1.23345e-16	$X=60.8545 $Y=208.7115
C1446	net1#170	GNDA	3.29861e-17	$X=58.967 $Y=190.0445
C1447	net1#171	GNDA	3.29861e-17	$X=62.7415 $Y=190.0445
C1448	net1#167	GNDA	8.49497e-17	$X=60.8545 $Y=192.502
C1449	net1#169	GNDA	1.23319e-16	$X=60.8545 $Y=190.6515
C1450	net9#31	GNDA	2.00692e-17	$X=63.6245 $Y=213.1285
C1451	net9#35	GNDA	3.37219e-17	$X=63.6245 $Y=225.0855
C1452	net1#172	GNDA	2.27145e-17	$X=63.6245 $Y=194.1085
C1453	net1#176	GNDA	1.96014e-17	$X=63.6245 $Y=207.025
C1454	net9#36	GNDA	2.23623e-17	$X=63.6245 $Y=177.3385
C1455	net9#40	GNDA	2.73246e-17	$X=63.6245 $Y=188.965
C1456	VDDA#147	GNDA	1.98902e-17	$X=64.3245 $Y=214.0885
C1457	VDDA#151	GNDA	3.37219e-17	$X=64.3245 $Y=225.0855
C1458	VDDA#152	GNDA	1.98902e-17	$X=64.3245 $Y=196.0285
C1459	VDDA#156	GNDA	2.73246e-17	$X=64.3245 $Y=207.025
C1460	VDDA#157	GNDA	2.00692e-17	$X=64.3245 $Y=178.2985
C1461	VDDA#161	GNDA	2.73246e-17	$X=64.3245 $Y=188.965
C1462	DEL#107	GNDA	2.83849e-17	$X=63.302 $Y=125.124
C1463	DEL#116	GNDA	2.83849e-17	$X=63.302 $Y=67.2845
C1464	net1#180	GNDA	3.95471e-17	$X=65.207 $Y=226.1645
C1465	net1#181	GNDA	3.95471e-17	$X=68.9815 $Y=226.1645
C1466	net1#177	GNDA	6.8978e-17	$X=67.0945 $Y=228.292
C1467	net1#179	GNDA	1.47847e-16	$X=67.0945 $Y=226.6615
C1468	net1#185	GNDA	3.29861e-17	$X=65.207 $Y=208.1045
C1469	net1#186	GNDA	3.29861e-17	$X=68.9815 $Y=208.1045
C1470	net1#182	GNDA	8.49497e-17	$X=67.0945 $Y=210.562
C1471	net1#184	GNDA	1.23345e-16	$X=67.0945 $Y=208.7115
C1472	net1#190	GNDA	3.29861e-17	$X=65.207 $Y=190.0445
C1473	net1#191	GNDA	3.29861e-17	$X=68.9815 $Y=190.0445
C1474	net1#187	GNDA	8.5175e-17	$X=67.0945 $Y=192.502
C1475	net1#189	GNDA	1.29472e-16	$X=67.0945 $Y=190.6515
C1476	net1#192	GNDA	2.27145e-17	$X=69.8645 $Y=212.1685
C1477	net1#196	GNDA	2.34683e-17	$X=69.8645 $Y=225.0855
C1478	DEL#117	GNDA	4.8881e-16	$X=69.8645 $Y=193.1485
C1479	DEL#121	GNDA	2.44057e-16	$X=69.8645 $Y=207.025
C1480	net1#197	GNDA	6.32154e-17	$X=69.8645 $Y=176.3785
C1481	net1#201	GNDA	1.73845e-17	$X=69.8645 $Y=188.965
C1482	VDDA#162	GNDA	1.98902e-17	$X=70.5645 $Y=214.0885
C1483	VDDA#166	GNDA	3.37219e-17	$X=70.5645 $Y=225.0855
C1484	VDDA#167	GNDA	1.73078e-16	$X=70.5645 $Y=196.0285
C1485	VDDA#171	GNDA	1.4206e-16	$X=70.5645 $Y=207.025
C1486	VDDA#172	GNDA	5.13305e-17	$X=70.5645 $Y=178.2985
C1487	VDDA#176	GNDA	2.73246e-17	$X=70.5645 $Y=188.965
C1488	net1#205	GNDA	3.95471e-17	$X=71.447 $Y=226.1645
C1489	net1#206	GNDA	5.92359e-17	$X=75.2215 $Y=226.1645
C1490	net1#202	GNDA	6.8978e-17	$X=73.3345 $Y=228.292
C1491	net1#204	GNDA	1.47847e-16	$X=73.3345 $Y=226.6615
C1492	net1#210	GNDA	3.29861e-17	$X=71.447 $Y=208.1045
C1493	net1#211	GNDA	5.26749e-17	$X=75.2215 $Y=208.1045
C1494	net1#207	GNDA	8.49497e-17	$X=73.3345 $Y=210.562
C1495	net1#209	GNDA	1.23345e-16	$X=73.3345 $Y=208.7115
C1496	net1#215	GNDA	3.29861e-17	$X=71.447 $Y=190.0445
C1497	net1#216	GNDA	3.29861e-17	$X=75.2215 $Y=190.0445
C1498	net1#212	GNDA	8.50204e-17	$X=73.3345 $Y=192.502
C1499	net1#214	GNDA	1.38385e-16	$X=73.3345 $Y=190.6515
C1500	net9#41	GNDA	2.00692e-17	$X=76.1045 $Y=213.1285
C1501	net9#45	GNDA	3.37219e-17	$X=76.1045 $Y=225.0855
C1502	net1#217	GNDA	2.27145e-17	$X=76.1045 $Y=194.1085
C1503	net1#221	GNDA	2.73246e-17	$X=76.1045 $Y=207.025
C1504	net9#46	GNDA	2.17716e-17	$X=76.1045 $Y=177.3385
C1505	net9#50	GNDA	2.73246e-17	$X=76.1045 $Y=188.965
C1506	VDDA#177	GNDA	1.98902e-17	$X=76.8045 $Y=214.0885
C1507	VDDA#181	GNDA	3.37219e-17	$X=76.8045 $Y=225.0855
C1508	VDDA#182	GNDA	1.98902e-17	$X=76.8045 $Y=196.0285
C1509	VDDA#186	GNDA	2.73246e-17	$X=76.8045 $Y=207.025
C1510	VDDA#187	GNDA	7.45381e-17	$X=76.8045 $Y=178.2985
C1511	VDDA#191	GNDA	2.73246e-17	$X=76.8045 $Y=188.965
C1512	net9#51	GNDA	1.33748e-16	$X=81.4195 $Y=159.866
C1513	net9#54	GNDA	3.75267e-16	$X=81.4195 $Y=163.1815
C1514	VDDA#195	GNDA	6.26342e-17	$X=77.687 $Y=226.1645
C1515	VDDA#196	GNDA	6.29725e-17	$X=81.4615 $Y=226.1645
C1516	VDDA#192	GNDA	3.19542e-17	$X=79.5745 $Y=230.212
C1517	VDDA#194	GNDA	2.01328e-16	$X=79.5745 $Y=227.3015
C1518	VDDA#200	GNDA	5.47019e-17	$X=77.687 $Y=208.1045
C1519	VDDA#201	GNDA	5.50401e-17	$X=81.4615 $Y=208.1045
C1520	VDDA#197	GNDA	7.10968e-18	$X=79.5745 $Y=212.482
C1521	VDDA#199	GNDA	2.12397e-16	$X=79.5745 $Y=209.3515
C1522	net1#225	GNDA	3.29861e-17	$X=77.687 $Y=190.0445
C1523	net1#226	GNDA	5.27398e-17	$X=81.4615 $Y=190.0445
C1524	net1#222	GNDA	8.49497e-17	$X=79.5745 $Y=192.502
C1525	net1#224	GNDA	1.23345e-16	$X=79.5745 $Y=190.6515
C1526	VDDA#202	GNDA	1.98902e-17	$X=82.3445 $Y=214.0885
C1527	VDDA#206	GNDA	3.37219e-17	$X=82.3445 $Y=225.0855
C1528	VDDA#207	GNDA	1.98902e-17	$X=82.3445 $Y=196.0285
C1529	VDDA#211	GNDA	2.73246e-17	$X=82.3445 $Y=207.025
C1530	net1#227	GNDA	6.75643e-17	$X=82.3445 $Y=176.3785
C1531	net1#231	GNDA	2.73246e-17	$X=82.3445 $Y=188.965
C1532	net10#7	GNDA	3.75729e-16	$X=82.4595 $Y=158.531
C1533	net10#10	GNDA	8.92774e-16	$X=82.4595 $Y=162.7365
C1534	BG_REF#4	GNDA	4.75462e-16	$X=81.9395 $Y=166.789
C1535	VDDA#212	GNDA	1.98902e-17	$X=83.0445 $Y=214.0885
C1536	VDDA#216	GNDA	3.37219e-17	$X=83.0445 $Y=225.0855
C1537	VDDA#217	GNDA	1.98902e-17	$X=83.0445 $Y=196.0285
C1538	VDDA#221	GNDA	2.73246e-17	$X=83.0445 $Y=207.025
C1539	VDDA#222	GNDA	5.13305e-17	$X=83.0445 $Y=178.2985
C1540	VDDA#226	GNDA	2.73246e-17	$X=83.0445 $Y=188.965
C1541	net9#55	GNDA	2.79582e-16	$X=83.1595 $Y=159.866
C1542	net9#58	GNDA	7.13332e-16	$X=83.1595 $Y=163.1815
C1543	A#7	GNDA	4.09307e-16	$X=84.1995 $Y=157.196
C1544	A#10	GNDA	7.46026e-16	$X=84.1995 $Y=162.2915
C1545	C#8	GNDA	3.12251e-16	$X=83.6795 $Y=166.399
C1546	net10#14	GNDA	3.85743e-17	$X=80.266 $Y=146.079
C1547	net10#11	GNDA	2.07027e-17	$X=84.0135 $Y=146.079
C1548	net10#12	GNDA	1.88492e-16	$X=82.1395 $Y=146.459
C1549	A#11	GNDA	3.99309e-16	$X=84.9095 $Y=138.2235
C1550	A#14	GNDA	8.5413e-16	$X=84.9095 $Y=142.614
C1551	VDDA#230	GNDA	6.26313e-17	$X=83.927 $Y=226.1645
C1552	VDDA#231	GNDA	5.79984e-17	$X=87.7015 $Y=226.1645
C1553	VDDA#227	GNDA	3.19542e-17	$X=85.8145 $Y=230.212
C1554	VDDA#229	GNDA	2.28378e-16	$X=85.8145 $Y=227.3015
C1555	VDDA#235	GNDA	5.47e-17	$X=83.927 $Y=208.1045
C1556	VDDA#236	GNDA	5.00661e-17	$X=87.7015 $Y=208.1045
C1557	VDDA#232	GNDA	7.10968e-18	$X=85.8145 $Y=212.482
C1558	VDDA#234	GNDA	2.3531e-16	$X=85.8145 $Y=209.3515
C1559	VDDA#240	GNDA	5.47044e-17	$X=83.927 $Y=190.0445
C1560	VDDA#241	GNDA	5.00643e-17	$X=87.7015 $Y=190.0445
C1561	VDDA#237	GNDA	7.10968e-18	$X=85.8145 $Y=194.422
C1562	VDDA#239	GNDA	2.3531e-16	$X=85.8145 $Y=191.2915
C1563	VDDA#242	GNDA	1.98902e-17	$X=88.5845 $Y=214.0885
C1564	VDDA#246	GNDA	5.56313e-17	$X=88.5845 $Y=225.0855
C1565	VDDA#247	GNDA	1.98902e-17	$X=88.5845 $Y=196.0285
C1566	VDDA#251	GNDA	4.9234e-17	$X=88.5845 $Y=207.025
C1567	VDDA#252	GNDA	2.00692e-17	$X=88.5845 $Y=178.2985
C1568	VDDA#256	GNDA	4.9234e-17	$X=88.5845 $Y=188.965
C1569	net10#20	GNDA	2.07269e-17	$X=86.506 $Y=146.079
C1570	net10#17	GNDA	5.38859e-17	$X=90.2535 $Y=146.079
C1571	net10#18	GNDA	1.88492e-16	$X=88.3795 $Y=146.459
C1572	net10#23	GNDA	4.01039e-16	$X=91.1495 $Y=136.8885
C1573	net10#26	GNDA	5.51883e-16	$X=91.1495 $Y=142.169
C1574	DEL#122	GNDA	5.61143e-17	$X=94.0945 $Y=156.4895
C1575	DEL#126	GNDA	8.20466e-17	$X=94.0945 $Y=161.3795
C1576	DEL#124	GNDA	2.55816e-15	$X=94.7005 $Y=157.09
C1577	XI0/net39#2	GNDA	2.95248e-16	$X=100.696 $Y=156.8545
C1578	XI0/net39#4	GNDA	3.42225e-16	$X=99.778 $Y=156.8545
C1579	XI0/net31#28	GNDA	4.28258e-16	$X=100.782 $Y=157.5815
C1580	XI0/net31#31	GNDA	5.67146e-16	$X=98.1995 $Y=157.694
C1581	XI0/net14#5	GNDA	2.22597e-16	$X=99.6045 $Y=158.437
C1582	VDDA#265	GNDA	5.00773e-16	$X=79.4695 $Y=157.999
C1583	VDDA#264	GNDA	8.85774e-17	$X=79.4695 $Y=165.2195
C1584	VDDA#262	GNDA	2.24654e-16	$X=33.9925 $Y=174.2435
C1585	VDDA#269	GNDA	4.37058e-15	$X=58.6285 $Y=232.5175
C1586	VDDA#259	GNDA	7.17312e-15	$X=91.5825 $Y=172.817
C1587	VDDA#266	GNDA	6.41074e-16	$X=86.1495 $Y=157.9985
C1588	VDDA#271	GNDA	4.38019e-16	$X=103.0245 $Y=158.1215
C1589	POR_OUT_L#1	GNDA	5.8876e-16	$X=105.3045 $Y=157.804
C1590	VDDA#280	GNDA	9.23247e-15	$X=103.164 $Y=171.906
C1591	DEL#137	GNDA	2.83849e-17	$X=116.302 $Y=125.124
C1592	DEL#146	GNDA	2.83849e-17	$X=116.302 $Y=67.2845
C1593	C#13	GNDA	1.55769e-14	$X=125.733 $Y=135.0405
C1594	DEL#155	GNDA	2.83849e-17	$X=169.3015 $Y=125.124
C1595	DEL#164	GNDA	2.53702e-16	$X=169.3015 $Y=67.2845
C1596	DEL#173	GNDA	2.83849e-17	$X=222.3015 $Y=125.124
C1597	DEL#182	GNDA	2.53702e-16	$X=222.3015 $Y=67.2845
C1598	DEL#191	GNDA	2.83849e-17	$X=275.3015 $Y=125.124
C1599	DEL#200	GNDA	1.06027e-17	$X=275.3015 $Y=67.2845
C1600	C#15	GNDA	5.88671e-15	$X=303.3895 $Y=29.3
C1601	BIAS#1	GNDA	7.64325e-16	$X=28.4755 $Y=159.391
C1602	BIAS#4	GNDA	7.63809e-16	$X=28.4755 $Y=144.421
C1603	VDDA#1	GNDA	3.03479e-17	$X=29.6555 $Y=219.48
C1604	VDDA#4	GNDA	3.02865e-17	$X=29.6555 $Y=201.4205
C1605	VDDA#7	GNDA	2.56122e-17	$X=29.6555 $Y=183.3605
C1606	BIAS#7	GNDA	7.10711e-16	$X=34.7155 $Y=159.391
C1607	BIAS#10	GNDA	7.10196e-16	$X=34.7155 $Y=144.421
C1608	net1#4	GNDA	2.39639e-17	$X=35.8955 $Y=201.4205
C1609	net1#7	GNDA	2.56148e-17	$X=35.8955 $Y=183.3605
C1610	BIAS#13	GNDA	7.10711e-16	$X=40.9555 $Y=159.391
C1611	BIAS#16	GNDA	9.73596e-16	$X=40.9555 $Y=144.421
C1612	net1#10	GNDA	1.19923e-17	$X=42.1355 $Y=219.48
C1613	net1#13	GNDA	1.19923e-17	$X=42.1355 $Y=201.4205
C1614	net1#16	GNDA	1.36432e-17	$X=42.1355 $Y=183.3605
C1615	BIAS#19	GNDA	7.10711e-16	$X=47.1955 $Y=159.391
C1616	BIAS#22	GNDA	7.51838e-16	$X=47.1955 $Y=144.421
C1617	net1#19	GNDA	1.19923e-17	$X=48.3755 $Y=219.48
C1618	net1#22	GNDA	2.75392e-16	$X=48.3755 $Y=201.4205
C1619	net1#25	GNDA	1.36432e-17	$X=48.3755 $Y=183.3605
C1620	BIAS#25	GNDA	7.23499e-16	$X=53.4355 $Y=159.391
C1621	BIAS#28	GNDA	7.10196e-16	$X=53.4355 $Y=144.421
C1622	net1#28	GNDA	1.19923e-17	$X=54.6155 $Y=219.48
C1623	net1#31	GNDA	5.36344e-17	$X=54.6155 $Y=201.4205
C1624	net1#34	GNDA	1.36432e-17	$X=54.6155 $Y=183.3605
C1625	BIAS#31	GNDA	7.22167e-16	$X=59.6755 $Y=144.421
C1626	net1#37	GNDA	1.19923e-17	$X=60.8555 $Y=219.48
C1627	net1#40	GNDA	1.19923e-17	$X=60.8555 $Y=201.4205
C1628	net1#43	GNDA	1.36432e-17	$X=60.8555 $Y=183.3605
C1629	DEL#9	GNDA	2.06048e-16	$X=41.1275 $Y=67.699
C1630	net1#46	GNDA	1.19923e-17	$X=67.0955 $Y=219.48
C1631	net1#49	GNDA	2.75392e-16	$X=67.0955 $Y=201.4205
C1632	net1#52	GNDA	1.36432e-17	$X=67.0955 $Y=183.3605
C1633	net1#55	GNDA	2.47802e-17	$X=73.335 $Y=219.48
C1634	net1#58	GNDA	6.86033e-17	$X=73.335 $Y=201.4205
C1635	net1#61	GNDA	1.36432e-17	$X=73.335 $Y=183.3605
C1636	VDDA#10	GNDA	8.47164e-17	$X=79.575 $Y=219.48
C1637	VDDA#13	GNDA	3.67518e-17	$X=79.575 $Y=201.4205
C1638	net1#64	GNDA	6.72569e-17	$X=79.575 $Y=183.3605
C1639	BG_REF#1	GNDA	2.13501e-16	$X=81.9395 $Y=162.9165
C1640	VDDA#16	GNDA	3.02842e-17	$X=85.815 $Y=219.48
C1641	VDDA#19	GNDA	3.02865e-17	$X=85.815 $Y=201.4205
C1642	VDDA#22	GNDA	2.78652e-17	$X=85.815 $Y=183.3605
C1643	net10#4	GNDA	7.70979e-16	$X=88.38 $Y=143.146
C1644	A#6	GNDA	1.8747e-16	$X=94.5395 $Y=158.237
C1645	DEL#26	GNDA	3.23331e-16	$X=99.1445 $Y=157.789
C1646	DEL#24	GNDA	9.32432e-17	$X=99.5895 $Y=156.745
C1647	DEL#29	GNDA	9.37243e-17	$X=98.6995 $Y=156.583
C1648	DEL#28	GNDA	1.17252e-16	$X=98.6995 $Y=159.1805
C1649	DEL#17	GNDA	1.08401e-16	$X=99.5895 $Y=159.144
C1650	XI0/net31#6	GNDA	1.6554e-16	$X=104.172 $Y=157.8915
C1651	XI0/net31#5	GNDA	1.10483e-16	$X=105.062 $Y=157.8915
C1652	XI0/net31#4	GNDA	1.05426e-16	$X=105.9795 $Y=157.8915
C1653	XI0/net31#3	GNDA	8.56321e-17	$X=106.8695 $Y=157.892
C1654	XI0/net31#10	GNDA	7.96474e-17	$X=106.8695 $Y=156.914
C1655	XI0/net31#13	GNDA	7.1873e-17	$X=105.9795 $Y=156.914
C1656	XI0/net31#17	GNDA	7.23732e-17	$X=105.0095 $Y=156.914
C1657	XI0/net31#21	GNDA	7.15511e-17	$X=104.1195 $Y=156.914
C1658	XI0/net31#25	GNDA	5.64804e-17	$X=101.8695 $Y=156.775
C1659	XI0/net31#27	GNDA	6.49084e-17	$X=101.8695 $Y=159.1805
C1660	XI0/net31#23	GNDA	8.03964e-17	$X=104.1995 $Y=159.1645
C1661	XI0/net31#19	GNDA	7.22071e-17	$X=105.0895 $Y=159.1645
C1662	XI0/net31#15	GNDA	8.07546e-17	$X=105.9795 $Y=159.1645
C1663	XI0/net31#7	GNDA	1.95773e-16	$X=101.8695 $Y=157.8715
C1664	DEL#30	GNDA	2.23104e-16	$X=94.1265 $Y=125.5385
C1665	DEL#38	GNDA	2.238e-16	$X=94.1265 $Y=67.699
C1666	DEL#46	GNDA	2.8018e-16	$X=147.126 $Y=125.5385
C1667	DEL#54	GNDA	2.238e-16	$X=147.126 $Y=67.699
C1668	DEL#62	GNDA	2.28811e-16	$X=200.125 $Y=125.5385
C1669	DEL#70	GNDA	2.238e-16	$X=200.125 $Y=67.699
C1670	DEL#78	GNDA	4.53843e-16	$X=253.1245 $Y=125.5385
C1671	DEL#86	GNDA	4.44812e-16	$X=253.124 $Y=67.699
C1672	BIAS#140	GNDA	3.16507e-15	$X=42.517 $Y=167.373
C1673	BIAS#147	GNDA	5.67494e-15	$X=44.077 $Y=152.403
C1674	BIAS#160	GNDA	5.61475e-15	$X=55.5035 $Y=137.4135
C1675	BIAS#163	GNDA	4.83756e-15	$X=33.6835 $Y=137.414
C1676	BG_REF#9	GNDA	5.09649e-16	$X=84.145 $Y=167.699
C1677	net9#59	GNDA	1.47183e-15	$X=81.4255 $Y=160.574
C1678	net10#29	GNDA	2.52898e-15	$X=77.4395 $Y=138.356
C1679	net10#30	GNDA	1.70072e-15	$X=77.4395 $Y=146.826
C1680	net10#31	GNDA	2.99757e-15	$X=81.8145 $Y=157.799
C1681	net10#36	GNDA	3.9516e-16	$X=88.4695 $Y=146.819
C1682	net10#27	GNDA	1.62317e-15	$X=88.1175 $Y=135.869
C1683	net10#34	GNDA	2.53743e-16	$X=82.454 $Y=146.819
C1684	DEL#201	GNDA	4.45291e-17	$X=94.0945 $Y=156.4895
C1685	DEL#204	GNDA	5.47316e-17	$X=94.0945 $Y=161.3795
C1686	A#24	GNDA	4.9551e-15	$X=85.615 $Y=137.649
C1687	A#28	GNDA	6.22397e-16	$X=89.955 $Y=162.099
C1688	A#19	GNDA	3.69258e-15	$X=88.375 $Y=153.5985
C1689	A#29	GNDA	6.72408e-16	$X=93.618 $Y=162.099
C1690	net1#240	GNDA	6.95297e-15	$X=75.4605 $Y=145.231
C1691	net1#235	GNDA	2.1944e-15	$X=77.684 $Y=175.453
C1692	net1#242	GNDA	8.8221e-15	$X=36.795 $Y=135.5735
C1693	net1#232	GNDA	1.79234e-16	$X=93.6575 $Y=175.454
C1694	net1#234	GNDA	7.94897e-18	$X=84.0135 $Y=175.454
C1695	net1#237	GNDA	2.34696e-17	$X=57.385 $Y=175.454
C1696	net1#238	GNDA	3.12709e-17	$X=42.263 $Y=175.454
C1697	net9#64	GNDA	1.45326e-16	$X=77.6455 $Y=230.0325
C1698	net1#244	GNDA	1.61362e-15	$X=91.405 $Y=228.7535
C1699	net1#246	GNDA	6.39963e-15	$X=56.6215 $Y=228.752
C1700	DEL#207	GNDA	8.17485e-15	$X=38.338 $Y=227.4725
C1701	DEL#205	GNDA	8.52427e-15	$X=78.158 $Y=227.4725
C1702	VDDA#298	GNDA	1.86384e-16	$X=95.74 $Y=213.694
C1703	net9#67	GNDA	1.60563e-16	$X=91.6525 $Y=212.4135
C1704	net9#69	GNDA	1.07457e-16	$X=77.3625 $Y=212.4135
C1705	net9#70	GNDA	8.83637e-17	$X=63.625 $Y=212.414
C1706	net9#71	GNDA	8.83637e-17	$X=51.145 $Y=212.414
C1707	net9#72	GNDA	1.10389e-16	$X=37.138 $Y=212.4135
C1708	net1#255	GNDA	1.6307e-15	$X=91.405 $Y=211.1335
C1709	net1#257	GNDA	6.48342e-15	$X=56.6215 $Y=211.132
C1710	DEL#210	GNDA	8.03593e-15	$X=38.338 $Y=209.853
C1711	DEL#208	GNDA	8.36881e-15	$X=78.158 $Y=209.8525
C1712	VDDA#318	GNDA	2.02635e-16	$X=95.74 $Y=195.634
C1713	net9#74	GNDA	2.57481e-16	$X=86.9725 $Y=194.3535
C1714	net9#76	GNDA	3.04652e-16	$X=63.323 $Y=194.3535
C1715	net9#77	GNDA	1.80826e-16	$X=41.818 $Y=194.3535
C1716	net1#269	GNDA	1.26761e-15	$X=92.965 $Y=193.074
C1717	net1#271	GNDA	6.94714e-15	$X=58.1815 $Y=193.0725
C1718	DEL#211	GNDA	6.64982e-15	$X=34.855 $Y=191.793
C1719	DEL#212	GNDA	1.9258e-15	$X=55.704 $Y=191.794
C1720	DEL#213	GNDA	4.67302e-15	$X=72.012 $Y=191.7935
C1721	VDDA#337	GNDA	2.02635e-16	$X=95.74 $Y=178.014
C1722	net9#79	GNDA	1.42165e-16	$X=91.6525 $Y=176.734
C1723	net9#81	GNDA	1.33611e-16	$X=77.3625 $Y=176.734
C1724	net9#82	GNDA	9.55032e-17	$X=63.625 $Y=176.734
C1725	net9#83	GNDA	9.55002e-17	$X=51.145 $Y=176.734
C1726	net9#84	GNDA	1.28828e-16	$X=37.138 $Y=176.734
C1727	C#20	GNDA	1.44556e-15	$X=91.06 $Y=166.919
C1728	C#22	GNDA	8.21524e-16	$X=82.3845 $Y=166.919
C1729	DEL#218	GNDA	3.07572e-16	$X=96.4945 $Y=155.709
C1730	DEL#217	GNDA	2.41169e-16	$X=96.4945 $Y=157.2195
C1731	DEL#215	GNDA	2.60445e-16	$X=98.5525 $Y=157.8045
C1732	POR_OUT_L#13	GNDA	2.17922e-16	$X=107.6905 $Y=157.724
C1733	DEL#222	GNDA	2.38442e-15	$X=247.031 $Y=127.113
C1734	DEL#223	GNDA	3.15417e-15	$X=199.8925 $Y=127.1125
C1735	DEL#224	GNDA	2.86277e-15	$X=148.186 $Y=127.1125
C1736	DEL#227	GNDA	1.4916e-15	$X=46.759 $Y=127.113
C1737	DEL#230	GNDA	1.75508e-15	$X=247.031 $Y=69.275
C1738	DEL#231	GNDA	2.59018e-15	$X=199.8925 $Y=69.2755
C1739	DEL#232	GNDA	2.59018e-15	$X=146.895 $Y=69.2755
C1740	DEL#233	GNDA	2.36486e-15	$X=93.8975 $Y=69.2755
C1741	DEL#234	GNDA	1.75512e-15	$X=46.759 $Y=69.275
C1742	VDDA#355	GNDA	9.77572e-15	$X=254.8575 $Y=163.3585
C1743	VDDA#356	GNDA	1.2898e-14	$X=151.444 $Y=170.7685
C1744	VDDA#370	GNDA	1.35471e-16	$X=97.359 $Y=231.314
C1745	C#28	GNDA	1.94228e-14	$X=259.158 $Y=131.6465
C1746	net9#86	GNDA	1.49873e-16	$X=19.555 $Y=226.519
C1747	net9#88	GNDA	1.49873e-16	$X=19.5555 $Y=212.3035
C1748	net9#89	GNDA	1.49873e-16	$X=19.5555 $Y=194.464
C1749	net1#284	GNDA	1.60979e-16	$X=21.335 $Y=225.879
C1750	net1#286	GNDA	1.73348e-16	$X=21.3355 $Y=211.0235
C1751	net1#287	GNDA	1.7335e-16	$X=21.3355 $Y=193.184
C1752	net1#288	GNDA	1.47813e-17	$X=21.335 $Y=179.609
C1753	net9#98	GNDA	4.20166e-16	$X=78.9695 $Y=170.0415
C1754	net9#92	GNDA	1.43427e-16	$X=94.1345 $Y=226.519
C1755	net9#94	GNDA	1.43338e-16	$X=94.1345 $Y=212.3035
C1756	net9#95	GNDA	1.43338e-16	$X=94.1345 $Y=194.464
C1757	net9#96	GNDA	3.7945e-16	$X=94.135 $Y=178.911
C1758	net1#290	GNDA	1.5631e-15	$X=95.9145 $Y=225.879
C1759	net1#292	GNDA	2.26165e-15	$X=95.9145 $Y=211.0235
C1760	net1#293	GNDA	2.25604e-15	$X=95.9145 $Y=193.184
C1761	net1#294	GNDA	1.158e-15	$X=95.9145 $Y=179.609
C1762	DEL#242	GNDA	2.88106e-15	$X=95.8975 $Y=169.7735
C1763	DEL#238	GNDA	2.85581e-15	$X=97.6945 $Y=225.239
C1764	DEL#240	GNDA	3.80551e-15	$X=97.6945 $Y=209.744
C1765	DEL#241	GNDA	4.23915e-15	$X=97.6945 $Y=190.869
C1766	C#35	GNDA	1.63837e-15	$X=124.4345 $Y=159.4165
C1767	C#33	GNDA	8.31556e-16	$X=124.4345 $Y=143.671
C1768	C#36	GNDA	1.24509e-15	$X=103.9495 $Y=166.919
*
*
.ENDS por2
*
