*
*
*
*                       LINUX           Wed Jun 26 14:51:53 2024
*
*
*
*  PROGRAM  advgen
*
*  Name           : advgen - Quantus - (64-bit)
*  Version        : 23.1.0-p075
*  Build Date     : Tue Sep 26 09:11:43 PDT 2023
*
*  HSPICE LIBRARY
*
* GLOBAL_TEMPERATURE 27
*  OPERATING_TEMPERATURE 27
*  QRC_TECH_DIR /home/saul/pkg/xfab/XKIT/xh018/cadence/v9_0/QRC_pvs/v9_0_1/XH018_1143/QRC-Typ 
*
*!LENGTH_UNITS METERS
*
*
*
*
*       SUBCIRCUIT DEFINITIONS
*
.SUBCKT NE3I_6 D G S B NW SB
.ENDS
*

*
.SUBCKT dac6b_amp_n2 BIAS D0 D1 D2 D3 D4 D5 ENABLE GNDA VDDA VOUT VREF
*
*
*  caps2d version: 10
*
*       SUBCIRCUIT CALLS
*
XXM41 A#175 A#8 A#167 A VDDA GNDA NE3I_6	L=2e-06	W=1e-05
+ AD=4.8e-12	AS=4.8e-12	PD=2.096e-05	PS=2.096e-05
+ NRD=0.0173	NRS=0.0173
XXM12@1 net7#265 VREF#32 A#159 A VDDA GNDA NE3I_6	L=2e-06	W=1e-05
+ AD=4.8e-12	AS=4.8e-12	PD=2.096e-05	PS=2.096e-05
+ NRD=0.0173	NRS=0.0173
XXM41@3 A#173 A#6 A#165 A VDDA GNDA NE3I_6	L=2e-06	W=1e-05
+ AD=4.8e-12	AS=4.8e-12	PD=2.096e-05	PS=2.096e-05
+ NRD=0.0173	NRS=0.0173
XXM24@10 net12#129 net14#34 A#157 A VDDA GNDA NE3I_6	L=2e-06	W=1e-05
+ AD=4.8e-12	AS=4.8e-12	PD=2.096e-05	PS=2.096e-05
+ NRD=0.0173	NRS=0.0173
XXM24@7 net12#127 net14#32 A#151 A VDDA GNDA NE3I_6	L=2e-06	W=1e-05
+ AD=4.8e-12	AS=4.8e-12	PD=2.096e-05	PS=2.096e-05
+ NRD=0.0173	NRS=0.0173
XXM12@3 net7#258 VREF#28 A#143 A VDDA GNDA NE3I_6	L=2e-06	W=1e-05
+ AD=4.8e-12	AS=4.8e-12	PD=2.096e-05	PS=2.096e-05
+ NRD=0.0173	NRS=0.0173
XXM12@15 net7#263 VREF#30 A#149 A VDDA GNDA NE3I_6	L=2e-06	W=1e-05
+ AD=4.8e-12	AS=4.8e-12	PD=2.096e-05	PS=2.096e-05
+ NRD=0.0173	NRS=0.0173
XXM24@2 net12#115 net14#30 A#141 A VDDA GNDA NE3I_6	L=2e-06	W=1e-05
+ AD=4.8e-12	AS=4.8e-12	PD=2.096e-05	PS=2.096e-05
+ NRD=0.0173	NRS=0.0173
XXM24@12 net12#113 net14#28 A#135 A VDDA GNDA NE3I_6	L=2e-06	W=1e-05
+ AD=4.8e-12	AS=4.8e-12	PD=2.096e-05	PS=2.096e-05
+ NRD=0.0173	NRS=0.0173
XXM12@2 net7#254 VREF#24 A#127 A VDDA GNDA NE3I_6	L=2e-06	W=1e-05
+ AD=4.8e-12	AS=4.8e-12	PD=2.096e-05	PS=2.096e-05
+ NRD=0.0173	NRS=0.0173
XXM12@4 net7#256 VREF#26 A#133 A VDDA GNDA NE3I_6	L=2e-06	W=1e-05
+ AD=4.8e-12	AS=4.8e-12	PD=2.096e-05	PS=2.096e-05
+ NRD=0.0173	NRS=0.0173
XXM24@4 net12#111 net14#26 A#125 A VDDA GNDA NE3I_6	L=2e-06	W=1e-05
+ AD=4.8e-12	AS=4.8e-12	PD=2.096e-05	PS=2.096e-05
+ NRD=0.0173	NRS=0.0173
XXM24@5 net12#99 net14#24 A#119 A VDDA GNDA NE3I_6	L=2e-06	W=1e-05
+ AD=4.8e-12	AS=4.8e-12	PD=2.096e-05	PS=2.096e-05
+ NRD=0.0173	NRS=0.0173
XXM12 net7#247 VREF#20 A#111 A VDDA GNDA NE3I_6	L=2e-06	W=1e-05
+ AD=4.8e-12	AS=4.8e-12	PD=2.096e-05	PS=2.096e-05
+ NRD=0.0173	NRS=0.0173
XXM12@9 net7#249 VREF#22 A#117 A VDDA GNDA NE3I_6	L=2e-06	W=1e-05
+ AD=4.8e-12	AS=4.8e-12	PD=2.096e-05	PS=2.096e-05
+ NRD=0.0173	NRS=0.0173
XXM24@13 net12#97 net14#22 A#109 A VDDA GNDA NE3I_6	L=2e-06	W=1e-05
+ AD=4.8e-12	AS=4.8e-12	PD=2.096e-05	PS=2.096e-05
+ NRD=0.0173	NRS=0.0173
XXM24@3 net12#95 net14#20 A#103 A VDDA GNDA NE3I_6	L=2e-06	W=1e-05
+ AD=4.8e-12	AS=4.8e-12	PD=2.096e-05	PS=2.096e-05
+ NRD=0.0173	NRS=0.0173
XXM12@13 net7#240 VREF#16 A#95 A VDDA GNDA NE3I_6	L=2e-06	W=1e-05
+ AD=4.8e-12	AS=4.8e-12	PD=2.096e-05	PS=2.096e-05
+ NRD=0.0173	NRS=0.0173
XXM12@12 net7#245 VREF#18 A#101 A VDDA GNDA NE3I_6	L=2e-06	W=1e-05
+ AD=4.8e-12	AS=4.8e-12	PD=2.096e-05	PS=2.096e-05
+ NRD=0.0173	NRS=0.0173
XXM24@9 net12#83 net14#18 A#93 A VDDA GNDA NE3I_6	L=2e-06	W=1e-05
+ AD=4.8e-12	AS=4.8e-12	PD=2.096e-05	PS=2.096e-05
+ NRD=0.0173	NRS=0.0173
XXM24@15 net12#81 net14#16 A#87 A VDDA GNDA NE3I_6	L=2e-06	W=1e-05
+ AD=4.8e-12	AS=4.8e-12	PD=2.096e-05	PS=2.096e-05
+ NRD=0.0173	NRS=0.0173
XXM12@11 net7#236 VREF#12 A#79 A VDDA GNDA NE3I_6	L=2e-06	W=1e-05
+ AD=4.8e-12	AS=4.8e-12	PD=2.096e-05	PS=2.096e-05
+ NRD=0.0173	NRS=0.0173
XXM12@10 net7#238 VREF#14 A#85 A VDDA GNDA NE3I_6	L=2e-06	W=1e-05
+ AD=4.8e-12	AS=4.8e-12	PD=2.096e-05	PS=2.096e-05
+ NRD=0.0173	NRS=0.0173
XXM24 net12#79 net14#14 A#77 A VDDA GNDA NE3I_6	L=2e-06	W=1e-05
+ AD=4.8e-12	AS=4.8e-12	PD=2.096e-05	PS=2.096e-05
+ NRD=0.0173	NRS=0.0173
XXM24@1 net12#77 net14#12 A#71 A VDDA GNDA NE3I_6	L=2e-06	W=1e-05
+ AD=4.8e-12	AS=4.8e-12	PD=2.096e-05	PS=2.096e-05
+ NRD=0.0173	NRS=0.0173
XXM12@14 net7#229 VREF#8 A#63 A VDDA GNDA NE3I_6	L=2e-06	W=1e-05
+ AD=4.8e-12	AS=4.8e-12	PD=2.096e-05	PS=2.096e-05
+ NRD=0.0173	NRS=0.0173
XXM12@5 net7#234 VREF#10 A#69 A VDDA GNDA NE3I_6	L=2e-06	W=1e-05
+ AD=4.8e-12	AS=4.8e-12	PD=2.096e-05	PS=2.096e-05
+ NRD=0.0173	NRS=0.0173
XXM24@8 net12#65 net14#10 A#61 A VDDA GNDA NE3I_6	L=2e-06	W=1e-05
+ AD=4.8e-12	AS=4.8e-12	PD=2.096e-05	PS=2.096e-05
+ NRD=0.0173	NRS=0.0173
XXM24@11 net12#63 net14#8 A#55 A VDDA GNDA NE3I_6	L=2e-06	W=1e-05
+ AD=4.8e-12	AS=4.8e-12	PD=2.096e-05	PS=2.096e-05
+ NRD=0.0173	NRS=0.0173
XXM12@7 net7#225 VREF#4 A#44 A VDDA GNDA NE3I_6	L=2e-06	W=1e-05
+ AD=4.8e-12	AS=4.8e-12	PD=2.096e-05	PS=2.096e-05
+ NRD=0.0173	NRS=0.0173
XXM12@6 net7#227 VREF#6 A#53 A VDDA GNDA NE3I_6	L=2e-06	W=1e-05
+ AD=4.8e-12	AS=4.8e-12	PD=2.096e-05	PS=2.096e-05
+ NRD=0.0173	NRS=0.0173
XXM24@6 net12#61 net14#6 A#42 A VDDA GNDA NE3I_6	L=2e-06	W=1e-05
+ AD=4.8e-12	AS=4.8e-12	PD=2.096e-05	PS=2.096e-05
+ NRD=0.0173	NRS=0.0173
XXM24@14 net12#49 net14#2 A#33 A VDDA GNDA NE3I_6	L=2e-06	W=1e-05
+ AD=4.8e-12	AS=4.8e-12	PD=2.096e-05	PS=2.096e-05
+ NRD=0.0173	NRS=0.0173
XXM41@2 A#25 A#4 A#17 A VDDA GNDA NE3I_6	L=2e-06	W=1e-05
+ AD=4.8e-12	AS=4.8e-12	PD=2.096e-05	PS=2.096e-05
+ NRD=0.0173	NRS=0.0173
XXM12@8 net7#220 VREF#2 A#31 A VDDA GNDA NE3I_6	L=2e-06	W=1e-05
+ AD=4.8e-12	AS=4.8e-12	PD=2.096e-05	PS=2.096e-05
+ NRD=0.0173	NRS=0.0173
XXM41@1 A#23 A#2 A#15 A VDDA GNDA NE3I_6	L=2e-06	W=1e-05
+ AD=4.8e-12	AS=4.8e-12	PD=2.096e-05	PS=2.096e-05
+ NRD=0.0173	NRS=0.0173
*
*       TRANSISTOR CARDS
*
*
MMM34	EN#17	ENABLE#1	GNDA#448	GNDA	ne3	L=3.5e-07
+ W=2e-06
+ AD=9.6e-13	AS=9.6e-13	PD=4.96e-06	PS=4.96e-06
+ NRD=0.0865	NRS=0.0865
MMM32@2	VOUT#3	EN#12	GNDA#465	GNDA	ne3	L=3.5e-07	W=1e-05
+ AD=2.7e-12	AS=4.8e-12	PD=1.054e-05	PS=2.096e-05
+ NRD=0.0173	NRS=0.0173
MMM32@1	VOUT#3	EN#14	GNDA#469	GNDA	ne3	L=3.5e-07	W=1e-05
+ AD=2.7e-12	AS=2.7e-12	PD=1.054e-05	PS=1.054e-05
+ NRD=0.0173	NRS=0.0173
MMM32	VOUT#5	EN#13	GNDA#469	GNDA	ne3	L=3.5e-07	W=1e-05
+ AD=2.7e-12	AS=2.7e-12	PD=1.054e-05	PS=1.054e-05
+ NRD=0.0173	NRS=0.0173
MMM32@3	VOUT#5	EN#8	GNDA#457	GNDA	ne3	L=3.5e-07	W=1e-05
+ AD=2.7e-12	AS=4.8e-12	PD=1.054e-05	PS=2.096e-05
+ NRD=0.0173	NRS=0.0173
MMM33@2	net9#172	EN#5	GNDA#441	GNDA	ne3	L=3.5e-07
+ W=1e-05
+ AD=2.7e-12	AS=4.8e-12	PD=1.054e-05	PS=2.096e-05
+ NRD=0.0173	NRS=0.0173
MMM33@1	net9#172	EN#7	GNDA#445	GNDA	ne3	L=3.5e-07
+ W=1e-05
+ AD=2.7e-12	AS=2.7e-12	PD=1.054e-05	PS=1.054e-05
+ NRD=0.0173	NRS=0.0173
MMM33	net9#174	EN#6	GNDA#445	GNDA	ne3	L=3.5e-07
+ W=1e-05
+ AD=2.7e-12	AS=2.7e-12	PD=1.054e-05	PS=1.054e-05
+ NRD=0.0173	NRS=0.0173
MMM33@3	net9#174	EN	GNDA#449	GNDA	ne3	L=3.5e-07
+ W=1e-05
+ AD=2.7e-12	AS=4.8e-12	PD=1.054e-05	PS=2.096e-05
+ NRD=0.0173	NRS=0.0173
MMM40	GNDA#115	GNDA#6	GNDA#109	GNDA	ne3	L=2e-06
+ W=1e-05
+ AD=4.8e-12	AS=4.8e-12	PD=2.096e-05	PS=2.096e-05
+ NRD=0.0173	NRS=0.0173
MMM40@1	GNDA#120	GNDA#8	GNDA#112	GNDA	ne3	L=2e-06
+ W=1e-05
+ AD=4.8e-12	AS=4.8e-12	PD=2.096e-05	PS=2.096e-05
+ NRD=0.0173	NRS=0.0173
MMM26@5	net13#34	net9#46	GNDA#103	GNDA	ne3	L=2e-06
+ W=1e-05
+ AD=4.8e-12	AS=4.8e-12	PD=2.096e-05	PS=2.096e-05
+ NRD=0.0173	NRS=0.0173
MMM13@5	net9#169	net9#48	GNDA#106	GNDA	ne3	L=2e-06
+ W=1e-05
+ AD=4.8e-12	AS=4.8e-12	PD=2.096e-05	PS=2.096e-05
+ NRD=0.0173	NRS=0.0173
MMM25@2	net15#22	net9#42	GNDA#97	GNDA	ne3	L=2e-06
+ W=1e-05
+ AD=4.8e-12	AS=4.8e-12	PD=2.096e-05	PS=2.096e-05
+ NRD=0.0173	NRS=0.0173
MMM26@3	net13#28	net9#44	GNDA#100	GNDA	ne3	L=2e-06
+ W=1e-05
+ AD=4.8e-12	AS=4.8e-12	PD=2.096e-05	PS=2.096e-05
+ NRD=0.0173	NRS=0.0173
MMM13@7	net9#152	net9#38	GNDA#91	GNDA	ne3	L=2e-06
+ W=1e-05
+ AD=4.8e-12	AS=4.8e-12	PD=2.096e-05	PS=2.096e-05
+ NRD=0.0173	NRS=0.0173
MMM25	net15#19	net9#40	GNDA#94	GNDA	ne3	L=2e-06
+ W=1e-05
+ AD=4.8e-12	AS=4.8e-12	PD=2.096e-05	PS=2.096e-05
+ NRD=0.0173	NRS=0.0173
MMM26@4	net13#22	net9#34	GNDA#85	GNDA	ne3	L=2e-06
+ W=1e-05
+ AD=4.8e-12	AS=4.8e-12	PD=2.096e-05	PS=2.096e-05
+ NRD=0.0173	NRS=0.0173
MMM13@4	net9#142	net9#36	GNDA#88	GNDA	ne3	L=2e-06
+ W=1e-05
+ AD=4.8e-12	AS=4.8e-12	PD=2.096e-05	PS=2.096e-05
+ NRD=0.0173	NRS=0.0173
MMM25@1	net15#16	net9#30	GNDA#79	GNDA	ne3	L=2e-06
+ W=1e-05
+ AD=4.8e-12	AS=4.8e-12	PD=2.096e-05	PS=2.096e-05
+ NRD=0.0173	NRS=0.0173
MMM26@2	net13#19	net9#32	GNDA#82	GNDA	ne3	L=2e-06
+ W=1e-05
+ AD=4.8e-12	AS=4.8e-12	PD=2.096e-05	PS=2.096e-05
+ NRD=0.0173	NRS=0.0173
MMM13@6	net9#125	net9#26	GNDA#73	GNDA	ne3	L=2e-06
+ W=1e-05
+ AD=4.8e-12	AS=4.8e-12	PD=2.096e-05	PS=2.096e-05
+ NRD=0.0173	NRS=0.0173
MMM25@4	net15#13	net9#28	GNDA#76	GNDA	ne3	L=2e-06
+ W=1e-05
+ AD=4.8e-12	AS=4.8e-12	PD=2.096e-05	PS=2.096e-05
+ NRD=0.0173	NRS=0.0173
MMM26	net13#10	net9#22	GNDA#67	GNDA	ne3	L=2e-06
+ W=1e-05
+ AD=4.8e-12	AS=4.8e-12	PD=2.096e-05	PS=2.096e-05
+ NRD=0.0173	NRS=0.0173
MMM13@2	net9#115	net9#24	GNDA#70	GNDA	ne3	L=2e-06
+ W=1e-05
+ AD=4.8e-12	AS=4.8e-12	PD=2.096e-05	PS=2.096e-05
+ NRD=0.0173	NRS=0.0173
MMM25@5	net15#10	net9#18	GNDA#61	GNDA	ne3	L=2e-06
+ W=1e-05
+ AD=4.8e-12	AS=4.8e-12	PD=2.096e-05	PS=2.096e-05
+ NRD=0.0173	NRS=0.0173
MMM26@1	net13#7	net9#20	GNDA#64	GNDA	ne3	L=2e-06
+ W=1e-05
+ AD=4.8e-12	AS=4.8e-12	PD=2.096e-05	PS=2.096e-05
+ NRD=0.0173	NRS=0.0173
MMM13	net9#95	net9#14	GNDA#55	GNDA	ne3	L=2e-06
+ W=1e-05
+ AD=4.8e-12	AS=4.8e-12	PD=2.096e-05	PS=2.096e-05
+ NRD=0.0173	NRS=0.0173
MMM25@7	net15#7	net9#16	GNDA#58	GNDA	ne3	L=2e-06
+ W=1e-05
+ AD=4.8e-12	AS=4.8e-12	PD=2.096e-05	PS=2.096e-05
+ NRD=0.0173	NRS=0.0173
MMM26@6	net13#4	net9#10	GNDA#49	GNDA	ne3	L=2e-06
+ W=1e-05
+ AD=4.8e-12	AS=4.8e-12	PD=2.096e-05	PS=2.096e-05
+ NRD=0.0173	NRS=0.0173
MMM13@1	net9#85	net9#12	GNDA#52	GNDA	ne3	L=2e-06
+ W=1e-05
+ AD=4.8e-12	AS=4.8e-12	PD=2.096e-05	PS=2.096e-05
+ NRD=0.0173	NRS=0.0173
MMM25@3	net15#4	net9#6	GNDA#43	GNDA	ne3	L=2e-06
+ W=1e-05
+ AD=4.8e-12	AS=4.8e-12	PD=2.096e-05	PS=2.096e-05
+ NRD=0.0173	NRS=0.0173
MMM26@7	net13	net9#8	GNDA#46	GNDA	ne3	L=2e-06	W=1e-05
+ AD=4.8e-12	AS=4.8e-12	PD=2.096e-05	PS=2.096e-05
+ NRD=0.0173	NRS=0.0173
MMM13@3	net9#62	net9#2	GNDA#37	GNDA	ne3	L=2e-06
+ W=1e-05
+ AD=4.8e-12	AS=4.8e-12	PD=2.096e-05	PS=2.096e-05
+ NRD=0.0173	NRS=0.0173
MMM25@6	net15	net9#4	GNDA#40	GNDA	ne3	L=2e-06	W=1e-05
+ AD=4.8e-12	AS=4.8e-12	PD=2.096e-05	PS=2.096e-05
+ NRD=0.0173	NRS=0.0173
MMM40@3	GNDA#31	GNDA#2	GNDA#22	GNDA	ne3	L=2e-06
+ W=1e-05
+ AD=4.8e-12	AS=4.8e-12	PD=2.096e-05	PS=2.096e-05
+ NRD=0.0173	NRS=0.0173
MMM40@2	GNDA#34	GNDA#4	GNDA#27	GNDA	ne3	L=2e-06
+ W=1e-05
+ AD=4.8e-12	AS=4.8e-12	PD=2.096e-05	PS=2.096e-05
+ NRD=0.0173	NRS=0.0173
MMM38@6	A#9	BIAS#34	net15#25	GNDA	ne3	L=2e-06
+ W=1e-05
+ AD=2.7e-12	AS=4.8e-12	PD=1.054e-05	PS=2.096e-05
+ NRD=0.0173	NRS=0.0173
MMM38@5	A#9	BIAS#36	net15#28	GNDA	ne3	L=2e-06
+ W=1e-05
+ AD=2.7e-12	AS=2.7e-12	PD=1.054e-05	PS=1.054e-05
+ NRD=0.0173	NRS=0.0173
MMM38@3	A#12	BIAS#38	net15#28	GNDA	ne3	L=2e-06
+ W=1e-05
+ AD=2.7e-12	AS=2.7e-12	PD=1.054e-05	PS=1.054e-05
+ NRD=0.0173	NRS=0.0173
MMM38@7	A#12	BIAS#40	net15#31	GNDA	ne3	L=2e-06
+ W=1e-05
+ AD=2.7e-12	AS=2.7e-12	PD=1.054e-05	PS=1.054e-05
+ NRD=0.0173	NRS=0.0173
MMM38@1	A#35	BIAS#42	net15#31	GNDA	ne3	L=2e-06
+ W=1e-05
+ AD=2.7e-12	AS=2.7e-12	PD=1.054e-05	PS=1.054e-05
+ NRD=0.0173	NRS=0.0173
MMM38	A#35	BIAS#44	net15#34	GNDA	ne3	L=2e-06
+ W=1e-05
+ AD=2.7e-12	AS=2.7e-12	PD=1.054e-05	PS=1.054e-05
+ NRD=0.0173	NRS=0.0173
MMM38@4	A#50	BIAS#46	net15#34	GNDA	ne3	L=2e-06
+ W=1e-05
+ AD=2.7e-12	AS=2.7e-12	PD=1.054e-05	PS=1.054e-05
+ NRD=0.0173	NRS=0.0173
MMM38@2	A#50	BIAS#48	net15#37	GNDA	ne3	L=2e-06
+ W=1e-05
+ AD=2.7e-12	AS=4.8e-12	PD=1.054e-05	PS=2.096e-05
+ NRD=0.0173	NRS=0.0173
MMM37@6	net8#30	BIAS#18	net13#13	GNDA	ne3	L=2e-06
+ W=1e-05
+ AD=2.7e-12	AS=4.8e-12	PD=1.054e-05	PS=2.096e-05
+ NRD=0.0173	NRS=0.0173
MMM37@2	net8#30	BIAS#20	net13#16	GNDA	ne3	L=2e-06
+ W=1e-05
+ AD=2.7e-12	AS=2.7e-12	PD=1.054e-05	PS=1.054e-05
+ NRD=0.0173	NRS=0.0173
MMM37	net8#36	BIAS#22	net13#16	GNDA	ne3	L=2e-06
+ W=1e-05
+ AD=2.7e-12	AS=2.7e-12	PD=1.054e-05	PS=1.054e-05
+ NRD=0.0173	NRS=0.0173
MMM37@4	net8#36	BIAS#24	net13#25	GNDA	ne3	L=2e-06
+ W=1e-05
+ AD=2.7e-12	AS=2.7e-12	PD=1.054e-05	PS=1.054e-05
+ NRD=0.0173	NRS=0.0173
MMM37@5	net8#39	BIAS#26	net13#25	GNDA	ne3	L=2e-06
+ W=1e-05
+ AD=2.7e-12	AS=2.7e-12	PD=1.054e-05	PS=1.054e-05
+ NRD=0.0173	NRS=0.0173
MMM37@1	net8#39	BIAS#28	net13#31	GNDA	ne3	L=2e-06
+ W=1e-05
+ AD=2.7e-12	AS=2.7e-12	PD=1.054e-05	PS=1.054e-05
+ NRD=0.0173	NRS=0.0173
MMM37@3	net8#42	BIAS#30	net13#31	GNDA	ne3	L=2e-06
+ W=1e-05
+ AD=2.7e-12	AS=2.7e-12	PD=1.054e-05	PS=1.054e-05
+ NRD=0.0173	NRS=0.0173
MMM37@7	net8#42	BIAS#32	net13#37	GNDA	ne3	L=2e-06
+ W=1e-05
+ AD=2.7e-12	AS=4.8e-12	PD=1.054e-05	PS=2.096e-05
+ NRD=0.0173	NRS=0.0173
MMM39@5	BIAS#53	BIAS#2	net9#49	GNDA	ne3	L=2e-06
+ W=1e-05
+ AD=2.7e-12	AS=4.8e-12	PD=1.054e-05	PS=2.096e-05
+ NRD=0.0173	NRS=0.0173
MMM39@4	BIAS#53	BIAS#4	net9#52	GNDA	ne3	L=2e-06
+ W=1e-05
+ AD=2.7e-12	AS=2.7e-12	PD=1.054e-05	PS=1.054e-05
+ NRD=0.0173	NRS=0.0173
MMM39@1	BIAS#64	BIAS#6	net9#52	GNDA	ne3	L=2e-06
+ W=1e-05
+ AD=2.7e-12	AS=2.7e-12	PD=1.054e-05	PS=1.054e-05
+ NRD=0.0173	NRS=0.0173
MMM39@3	BIAS#64	BIAS#8	net9#65	GNDA	ne3	L=2e-06
+ W=1e-05
+ AD=2.7e-12	AS=2.7e-12	PD=1.054e-05	PS=1.054e-05
+ NRD=0.0173	NRS=0.0173
MMM39	BIAS#75	BIAS#10	net9#65	GNDA	ne3	L=2e-06
+ W=1e-05
+ AD=2.7e-12	AS=2.7e-12	PD=1.054e-05	PS=1.054e-05
+ NRD=0.0173	NRS=0.0173
MMM39@7	BIAS#75	BIAS#12	net9#75	GNDA	ne3	L=2e-06
+ W=1e-05
+ AD=2.7e-12	AS=2.7e-12	PD=1.054e-05	PS=1.054e-05
+ NRD=0.0173	NRS=0.0173
MMM39@2	BIAS#86	BIAS#14	net9#75	GNDA	ne3	L=2e-06
+ W=1e-05
+ AD=2.7e-12	AS=2.7e-12	PD=1.054e-05	PS=1.054e-05
+ NRD=0.0173	NRS=0.0173
MMM39@6	BIAS#86	BIAS#16	net9#98	GNDA	ne3	L=2e-06
+ W=1e-05
+ AD=2.7e-12	AS=4.8e-12	PD=1.054e-05	PS=2.096e-05
+ NRD=0.0173	NRS=0.0173
MMM5@17	net5#107	net7#175	VDDA#800	VDDA	pe3	L=1e-05
+ W=1e-05
+ AD=4.8e-12	AS=4.8e-12	PD=2.096e-05	PS=2.096e-05
+ NRD=0.0173	NRS=0.0173
MMM5@16	net5#92	net7#160	VDDA#753	VDDA	pe3	L=1e-05
+ W=1e-05
+ AD=4.8e-12	AS=4.8e-12	PD=2.096e-05	PS=2.096e-05
+ NRD=0.0173	NRS=0.0173
MMM14	net19#46	net7#145	VDDA#703	VDDA	pe3	L=1e-05
+ W=1e-05
+ AD=4.8e-12	AS=4.8e-12	PD=2.096e-05	PS=2.096e-05
+ NRD=0.0173	NRS=0.0173
MMM4@14	net4#37	net7#127	VDDA#665	VDDA	pe3	L=1e-05
+ W=1e-05
+ AD=4.8e-12	AS=4.8e-12	PD=2.096e-05	PS=2.096e-05
+ NRD=0.0173	NRS=0.0173
MMM5@20	net5#110	net7#178	VDDA#803	VDDA	pe3	L=1e-05
+ W=1e-05
+ AD=4.8e-12	AS=4.8e-12	PD=2.096e-05	PS=2.096e-05
+ NRD=0.0173	NRS=0.0173
MMM5@19	net5#95	net7#163	VDDA#756	VDDA	pe3	L=1e-05
+ W=1e-05
+ AD=4.8e-12	AS=4.8e-12	PD=2.096e-05	PS=2.096e-05
+ NRD=0.0173	NRS=0.0173
MMM4@15	net4#54	net7#148	VDDA#706	VDDA	pe3	L=1e-05
+ W=1e-05
+ AD=4.8e-12	AS=4.8e-12	PD=2.096e-05	PS=2.096e-05
+ NRD=0.0173	NRS=0.0173
MMM3@2	net3#16	net7#130	VDDA#668	VDDA	pe3	L=1e-05
+ W=1e-05
+ AD=4.8e-12	AS=4.8e-12	PD=2.096e-05	PS=2.096e-05
+ NRD=0.0173	NRS=0.0173
MMM5@1	net5#113	net7#181	VDDA#806	VDDA	pe3	L=1e-05
+ W=1e-05
+ AD=4.8e-12	AS=4.8e-12	PD=2.096e-05	PS=2.096e-05
+ NRD=0.0173	NRS=0.0173
MMM5@2	net5#98	net7#166	VDDA#759	VDDA	pe3	L=1e-05
+ W=1e-05
+ AD=4.8e-12	AS=4.8e-12	PD=2.096e-05	PS=2.096e-05
+ NRD=0.0173	NRS=0.0173
MMM4@9	net4#57	net7#151	VDDA#709	VDDA	pe3	L=1e-05
+ W=1e-05
+ AD=4.8e-12	AS=4.8e-12	PD=2.096e-05	PS=2.096e-05
+ NRD=0.0173	NRS=0.0173
MMM4@12	net4#40	net7#133	VDDA#671	VDDA	pe3	L=1e-05
+ W=1e-05
+ AD=4.8e-12	AS=4.8e-12	PD=2.096e-05	PS=2.096e-05
+ NRD=0.0173	NRS=0.0173
MMM5@7	net5#116	net7#184	VDDA#809	VDDA	pe3	L=1e-05
+ W=1e-05
+ AD=4.8e-12	AS=4.8e-12	PD=2.096e-05	PS=2.096e-05
+ NRD=0.0173	NRS=0.0173
MMM5@10	net5#101	net7#169	VDDA#762	VDDA	pe3	L=1e-05
+ W=1e-05
+ AD=4.8e-12	AS=4.8e-12	PD=2.096e-05	PS=2.096e-05
+ NRD=0.0173	NRS=0.0173
MMM4@7	net4#60	net7#154	VDDA#712	VDDA	pe3	L=1e-05
+ W=1e-05
+ AD=4.8e-12	AS=4.8e-12	PD=2.096e-05	PS=2.096e-05
+ NRD=0.0173	NRS=0.0173
MMM3@4	net3#19	net7#136	VDDA#674	VDDA	pe3	L=1e-05
+ W=1e-05
+ AD=4.8e-12	AS=4.8e-12	PD=2.096e-05	PS=2.096e-05
+ NRD=0.0173	NRS=0.0173
MMM5@9	net5#119	net7#187	VDDA#812	VDDA	pe3	L=1e-05
+ W=1e-05
+ AD=4.8e-12	AS=4.8e-12	PD=2.096e-05	PS=2.096e-05
+ NRD=0.0173	NRS=0.0173
MMM5@4	net5#104	net7#172	VDDA#765	VDDA	pe3	L=1e-05
+ W=1e-05
+ AD=4.8e-12	AS=4.8e-12	PD=2.096e-05	PS=2.096e-05
+ NRD=0.0173	NRS=0.0173
MMM4@2	net4#63	net7#157	VDDA#715	VDDA	pe3	L=1e-05
+ W=1e-05
+ AD=4.8e-12	AS=4.8e-12	PD=2.096e-05	PS=2.096e-05
+ NRD=0.0173	NRS=0.0173
MMM3@6	net3#22	net7#139	VDDA#677	VDDA	pe3	L=1e-05
+ W=1e-05
+ AD=4.8e-12	AS=4.8e-12	PD=2.096e-05	PS=2.096e-05
+ NRD=0.0173	NRS=0.0173
MMM43@24	VDDA#834	VDDA#106	VDDA#797	VDDA	pe3
+ L=1e-05	W=1e-05
+ AD=4.8e-12	AS=4.8e-12	PD=2.096e-05	PS=2.096e-05
+ NRD=0.0173	NRS=0.0173
MMM43@13	VDDA#787	VDDA#97	VDDA#750	VDDA	pe3
+ L=1e-05	W=1e-05
+ AD=4.8e-12	AS=4.8e-12	PD=2.096e-05	PS=2.096e-05
+ NRD=0.0173	NRS=0.0173
MMM43@29	VDDA#740	VDDA#88	VDDA#718	VDDA	pe3
+ L=1e-05	W=1e-05
+ AD=4.8e-12	AS=4.8e-12	PD=2.096e-05	PS=2.096e-05
+ NRD=0.0173	NRS=0.0173
MMM5@3	net5#85	net7#142	VDDA#680	VDDA	pe3	L=1e-05
+ W=1e-05
+ AD=4.8e-12	AS=4.8e-12	PD=2.096e-05	PS=2.096e-05
+ NRD=0.0173	NRS=0.0173
MMM4@6	net4#28	net7#109	VDDA#627	VDDA	pe3	L=1e-05
+ W=1e-05
+ AD=4.8e-12	AS=4.8e-12	PD=2.096e-05	PS=2.096e-05
+ NRD=0.0173	NRS=0.0173
MMM4@4	net4#25	net7#91	VDDA#589	VDDA	pe3	L=1e-05
+ W=1e-05
+ AD=4.8e-12	AS=4.8e-12	PD=2.096e-05	PS=2.096e-05
+ NRD=0.0173	NRS=0.0173
MMM5@6	net5#55	net7#73	VDDA#551	VDDA	pe3	L=1e-05
+ W=1e-05
+ AD=4.8e-12	AS=4.8e-12	PD=2.096e-05	PS=2.096e-05
+ NRD=0.0173	NRS=0.0173
MMM5@5	net5#40	net7#55	VDDA#513	VDDA	pe3	L=1e-05
+ W=1e-05
+ AD=4.8e-12	AS=4.8e-12	PD=2.096e-05	PS=2.096e-05
+ NRD=0.0173	NRS=0.0173
MMM14@2	net19#37	net7#112	VDDA#630	VDDA	pe3	L=1e-05
+ W=1e-05
+ AD=4.8e-12	AS=4.8e-12	PD=2.096e-05	PS=2.096e-05
+ NRD=0.0173	NRS=0.0173
MMM2	net2#7	net7#94	VDDA#592	VDDA	pe3	L=1e-05
+ W=1e-05
+ AD=4.8e-12	AS=4.8e-12	PD=2.096e-05	PS=2.096e-05
+ NRD=0.0173	NRS=0.0173
MMM2@1	net2	net7#76	VDDA#554	VDDA	pe3	L=1e-05
+ W=1e-05
+ AD=4.8e-12	AS=4.8e-12	PD=2.096e-05	PS=2.096e-05
+ NRD=0.0173	NRS=0.0173
MMM14@1	net19#19	net7#58	VDDA#516	VDDA	pe3	L=1e-05
+ W=1e-05
+ AD=4.8e-12	AS=4.8e-12	PD=2.096e-05	PS=2.096e-05
+ NRD=0.0173	NRS=0.0173
MMM3@7	net3#13	net7#115	VDDA#633	VDDA	pe3	L=1e-05
+ W=1e-05
+ AD=4.8e-12	AS=4.8e-12	PD=2.096e-05	PS=2.096e-05
+ NRD=0.0173	NRS=0.0173
MMM14@3	net19#31	net7#97	VDDA#595	VDDA	pe3	L=1e-05
+ W=1e-05
+ AD=4.8e-12	AS=4.8e-12	PD=2.096e-05	PS=2.096e-05
+ NRD=0.0173	NRS=0.0173
MMM1@1	net1#4	net7#79	VDDA#557	VDDA	pe3	L=1e-05
+ W=1e-05
+ AD=4.8e-12	AS=4.8e-12	PD=2.096e-05	PS=2.096e-05
+ NRD=0.0173	NRS=0.0173
MMM14@9	net19#22	net7#61	VDDA#519	VDDA	pe3	L=1e-05
+ W=1e-05
+ AD=4.8e-12	AS=4.8e-12	PD=2.096e-05	PS=2.096e-05
+ NRD=0.0173	NRS=0.0173
MMM14@8	net19#40	net7#118	VDDA#636	VDDA	pe3	L=1e-05
+ W=1e-05
+ AD=4.8e-12	AS=4.8e-12	PD=2.096e-05	PS=2.096e-05
+ NRD=0.0173	NRS=0.0173
MMM0	net6	net7#100	VDDA#598	VDDA	pe3	L=1e-05
+ W=1e-05
+ AD=4.8e-12	AS=4.8e-12	PD=2.096e-05	PS=2.096e-05
+ NRD=0.0173	NRS=0.0173
MMM14@6	net19#28	net7#82	VDDA#560	VDDA	pe3	L=1e-05
+ W=1e-05
+ AD=4.8e-12	AS=4.8e-12	PD=2.096e-05	PS=2.096e-05
+ NRD=0.0173	NRS=0.0173
MMM1	net1	net7#64	VDDA#522	VDDA	pe3	L=1e-05
+ W=1e-05
+ AD=4.8e-12	AS=4.8e-12	PD=2.096e-05	PS=2.096e-05
+ NRD=0.0173	NRS=0.0173
MMM14@4	net19#43	net7#121	VDDA#639	VDDA	pe3	L=1e-05
+ W=1e-05
+ AD=4.8e-12	AS=4.8e-12	PD=2.096e-05	PS=2.096e-05
+ NRD=0.0173	NRS=0.0173
MMM2@2	net2#10	net7#103	VDDA#601	VDDA	pe3	L=1e-05
+ W=1e-05
+ AD=4.8e-12	AS=4.8e-12	PD=2.096e-05	PS=2.096e-05
+ NRD=0.0173	NRS=0.0173
MMM2@3	net2#4	net7#85	VDDA#563	VDDA	pe3	L=1e-05
+ W=1e-05
+ AD=4.8e-12	AS=4.8e-12	PD=2.096e-05	PS=2.096e-05
+ NRD=0.0173	NRS=0.0173
MMM14@5	net19#25	net7#67	VDDA#525	VDDA	pe3	L=1e-05
+ W=1e-05
+ AD=4.8e-12	AS=4.8e-12	PD=2.096e-05	PS=2.096e-05
+ NRD=0.0173	NRS=0.0173
MMM5@26	net5#79	net7#124	VDDA#642	VDDA	pe3	L=1e-05
+ W=1e-05
+ AD=4.8e-12	AS=4.8e-12	PD=2.096e-05	PS=2.096e-05
+ NRD=0.0173	NRS=0.0173
MMM14@7	net19#34	net7#106	VDDA#604	VDDA	pe3	L=1e-05
+ W=1e-05
+ AD=4.8e-12	AS=4.8e-12	PD=2.096e-05	PS=2.096e-05
+ NRD=0.0173	NRS=0.0173
MMM4@8	net4#22	net7#88	VDDA#566	VDDA	pe3	L=1e-05
+ W=1e-05
+ AD=4.8e-12	AS=4.8e-12	PD=2.096e-05	PS=2.096e-05
+ NRD=0.0173	NRS=0.0173
MMM4@11	net4#19	net7#70	VDDA#528	VDDA	pe3	L=1e-05
+ W=1e-05
+ AD=4.8e-12	AS=4.8e-12	PD=2.096e-05	PS=2.096e-05
+ NRD=0.0173	NRS=0.0173
MMM5@14	net5#25	net7#37	VDDA#475	VDDA	pe3	L=1e-05
+ W=1e-05
+ AD=4.8e-12	AS=4.8e-12	PD=2.096e-05	PS=2.096e-05
+ NRD=0.0173	NRS=0.0173
MMM5@13	net5#19	net7#19	VDDA#437	VDDA	pe3	L=1e-05
+ W=1e-05
+ AD=4.8e-12	AS=4.8e-12	PD=2.096e-05	PS=2.096e-05
+ NRD=0.0173	NRS=0.0173
MMM5@11	net5	net7	VDDA#397	VDDA	pe3	L=1e-05	W=1e-05
+ AD=4.8e-12	AS=4.8e-12	PD=2.096e-05	PS=2.096e-05
+ NRD=0.0173	NRS=0.0173
MMM43@16	VDDA#374	VDDA#16	VDDA#293	VDDA	pe3
+ L=1e-05	W=1e-05
+ AD=4.8e-12	AS=4.8e-12	PD=2.096e-05	PS=2.096e-05
+ NRD=0.0173	NRS=0.0173
MMM3@5	net3	net7#40	VDDA#478	VDDA	pe3	L=1e-05
+ W=1e-05
+ AD=4.8e-12	AS=4.8e-12	PD=2.096e-05	PS=2.096e-05
+ NRD=0.0173	NRS=0.0173
MMM4@5	net4	net7#22	VDDA#440	VDDA	pe3	L=1e-05
+ W=1e-05
+ AD=4.8e-12	AS=4.8e-12	PD=2.096e-05	PS=2.096e-05
+ NRD=0.0173	NRS=0.0173
MMM5@28	net5#4	net7#4	VDDA#402	VDDA	pe3	L=1e-05	W=1e-05
+ AD=4.8e-12	AS=4.8e-12	PD=2.096e-05	PS=2.096e-05
+ NRD=0.0173	NRS=0.0173
MMM43@15	VDDA#377	VDDA#19	VDDA#298	VDDA	pe3
+ L=1e-05	W=1e-05
+ AD=4.8e-12	AS=4.8e-12	PD=2.096e-05	PS=2.096e-05
+ NRD=0.0173	NRS=0.0173
MMM3@3	net3#4	net7#43	VDDA#481	VDDA	pe3	L=1e-05
+ W=1e-05
+ AD=4.8e-12	AS=4.8e-12	PD=2.096e-05	PS=2.096e-05
+ NRD=0.0173	NRS=0.0173
MMM4@3	net4#4	net7#25	VDDA#443	VDDA	pe3	L=1e-05
+ W=1e-05
+ AD=4.8e-12	AS=4.8e-12	PD=2.096e-05	PS=2.096e-05
+ NRD=0.0173	NRS=0.0173
MMM5@15	net5#7	net7#7	VDDA#405	VDDA	pe3	L=1e-05	W=1e-05
+ AD=4.8e-12	AS=4.8e-12	PD=2.096e-05	PS=2.096e-05
+ NRD=0.0173	NRS=0.0173
MMM43@26	VDDA#380	VDDA#22	VDDA#303	VDDA	pe3
+ L=1e-05	W=1e-05
+ AD=4.8e-12	AS=4.8e-12	PD=2.096e-05	PS=2.096e-05
+ NRD=0.0173	NRS=0.0173
MMM3	net3#7	net7#46	VDDA#484	VDDA	pe3	L=1e-05
+ W=1e-05
+ AD=4.8e-12	AS=4.8e-12	PD=2.096e-05	PS=2.096e-05
+ NRD=0.0173	NRS=0.0173
MMM4@1	net4#7	net7#28	VDDA#446	VDDA	pe3	L=1e-05
+ W=1e-05
+ AD=4.8e-12	AS=4.8e-12	PD=2.096e-05	PS=2.096e-05
+ NRD=0.0173	NRS=0.0173
MMM5@27	net5#16	net7#10	VDDA#408	VDDA	pe3	L=1e-05
+ W=1e-05
+ AD=4.8e-12	AS=4.8e-12	PD=2.096e-05	PS=2.096e-05
+ NRD=0.0173	NRS=0.0173
MMM43@25	VDDA#391	VDDA#25	VDDA#308	VDDA	pe3
+ L=1e-05	W=1e-05
+ AD=4.8e-12	AS=4.8e-12	PD=2.096e-05	PS=2.096e-05
+ NRD=0.0173	NRS=0.0173
MMM3@1	net3#10	net7#49	VDDA#487	VDDA	pe3	L=1e-05
+ W=1e-05
+ AD=4.8e-12	AS=4.8e-12	PD=2.096e-05	PS=2.096e-05
+ NRD=0.0173	NRS=0.0173
MMM4	net4#10	net7#31	VDDA#449	VDDA	pe3	L=1e-05
+ W=1e-05
+ AD=4.8e-12	AS=4.8e-12	PD=2.096e-05	PS=2.096e-05
+ NRD=0.0173	NRS=0.0173
MMM5@18	net5#10	net7#13	VDDA#411	VDDA	pe3	L=1e-05
+ W=1e-05
+ AD=4.8e-12	AS=4.8e-12	PD=2.096e-05	PS=2.096e-05
+ NRD=0.0173	NRS=0.0173
MMM42@16	VDDA#383	VDDA#28	VDDA#313	VDDA	pe3
+ L=1e-05	W=1e-05
+ AD=4.8e-12	AS=4.8e-12	PD=2.096e-05	PS=2.096e-05
+ NRD=0.0173	NRS=0.0173
MMM4@10	net4#16	net7#52	VDDA#490	VDDA	pe3	L=1e-05
+ W=1e-05
+ AD=4.8e-12	AS=4.8e-12	PD=2.096e-05	PS=2.096e-05
+ NRD=0.0173	NRS=0.0173
MMM4@13	net4#13	net7#34	VDDA#452	VDDA	pe3	L=1e-05
+ W=1e-05
+ AD=4.8e-12	AS=4.8e-12	PD=2.096e-05	PS=2.096e-05
+ NRD=0.0173	NRS=0.0173
MMM5@12	net5#13	net7#16	VDDA#414	VDDA	pe3	L=1e-05
+ W=1e-05
+ AD=4.8e-12	AS=4.8e-12	PD=2.096e-05	PS=2.096e-05
+ NRD=0.0173	NRS=0.0173
MMM43@28	VDDA#386	VDDA#31	VDDA#318	VDDA	pe3
+ L=1e-05	W=1e-05
+ AD=4.8e-12	AS=4.8e-12	PD=2.096e-05	PS=2.096e-05
+ NRD=0.0173	NRS=0.0173
MMM22@3	net7#270	net12#37	VDDA#257	VDDA	pe3	L=1e-05
+ W=1e-05
+ AD=4.8e-12	AS=4.8e-12	PD=2.096e-05	PS=2.096e-05
+ NRD=0.0173	NRS=0.0173
MMM23@2	net12#138	net12#31	VDDA#224	VDDA	pe3	L=1e-05
+ W=1e-05
+ AD=4.8e-12	AS=4.8e-12	PD=2.096e-05	PS=2.096e-05
+ NRD=0.0173	NRS=0.0173
MMM22@1	net7#260	net12#25	VDDA#218	VDDA	pe3	L=1e-05
+ W=1e-05
+ AD=4.8e-12	AS=4.8e-12	PD=2.096e-05	PS=2.096e-05
+ NRD=0.0173	NRS=0.0173
MMM23@6	net12#108	net12#19	VDDA#212	VDDA	pe3	L=1e-05
+ W=1e-05
+ AD=4.8e-12	AS=4.8e-12	PD=2.096e-05	PS=2.096e-05
+ NRD=0.0173	NRS=0.0173
MMM22	net7#242	net12#13	VDDA#197	VDDA	pe3	L=1e-05
+ W=1e-05
+ AD=4.8e-12	AS=4.8e-12	PD=2.096e-05	PS=2.096e-05
+ NRD=0.0173	NRS=0.0173
MMM23@1	net12#74	net12#7	VDDA#191	VDDA	pe3	L=1e-05
+ W=1e-05
+ AD=4.8e-12	AS=4.8e-12	PD=2.096e-05	PS=2.096e-05
+ NRD=0.0173	NRS=0.0173
MMM22@2	net7#222	net12	VDDA#184	VDDA	pe3	L=1e-05
+ W=1e-05
+ AD=4.8e-12	AS=4.8e-12	PD=2.096e-05	PS=2.096e-05
+ NRD=0.0173	NRS=0.0173
MMM43@27	VDDA#178	VDDA#1	VDDA#168	VDDA	pe3	L=1e-05
+ W=1e-05
+ AD=4.8e-12	AS=4.8e-12	PD=2.096e-05	PS=2.096e-05
+ NRD=0.0173	NRS=0.0173
MMM5@30	net5#137	net7#205	VDDA#894	VDDA	pe3	L=1e-05
+ W=1e-05
+ AD=4.8e-12	AS=4.8e-12	PD=2.096e-05	PS=2.096e-05
+ NRD=0.0173	NRS=0.0173
MMM5@29	net5#122	net7#190	VDDA#847	VDDA	pe3	L=1e-05
+ W=1e-05
+ AD=4.8e-12	AS=4.8e-12	PD=2.096e-05	PS=2.096e-05
+ NRD=0.0173	NRS=0.0173
MMM5@22	net5#140	net7#208	VDDA#897	VDDA	pe3	L=1e-05
+ W=1e-05
+ AD=4.8e-12	AS=4.8e-12	PD=2.096e-05	PS=2.096e-05
+ NRD=0.0173	NRS=0.0173
MMM5@21	net5#125	net7#193	VDDA#850	VDDA	pe3	L=1e-05
+ W=1e-05
+ AD=4.8e-12	AS=4.8e-12	PD=2.096e-05	PS=2.096e-05
+ NRD=0.0173	NRS=0.0173
MMM5@23	net5#143	net7#211	VDDA#900	VDDA	pe3	L=1e-05
+ W=1e-05
+ AD=4.8e-12	AS=4.8e-12	PD=2.096e-05	PS=2.096e-05
+ NRD=0.0173	NRS=0.0173
MMM5@25	net5#128	net7#196	VDDA#853	VDDA	pe3	L=1e-05
+ W=1e-05
+ AD=4.8e-12	AS=4.8e-12	PD=2.096e-05	PS=2.096e-05
+ NRD=0.0173	NRS=0.0173
MMM5@24	net5#146	net7#214	VDDA#903	VDDA	pe3	L=1e-05
+ W=1e-05
+ AD=4.8e-12	AS=4.8e-12	PD=2.096e-05	PS=2.096e-05
+ NRD=0.0173	NRS=0.0173
MMM5@31	net5#131	net7#199	VDDA#856	VDDA	pe3	L=1e-05
+ W=1e-05
+ AD=4.8e-12	AS=4.8e-12	PD=2.096e-05	PS=2.096e-05
+ NRD=0.0173	NRS=0.0173
MMM5@8	net5#149	net7#217	VDDA#906	VDDA	pe3	L=1e-05
+ W=1e-05
+ AD=4.8e-12	AS=4.8e-12	PD=2.096e-05	PS=2.096e-05
+ NRD=0.0173	NRS=0.0173
MMM5	net5#134	net7#202	VDDA#859	VDDA	pe3	L=1e-05
+ W=1e-05
+ AD=4.8e-12	AS=4.8e-12	PD=2.096e-05	PS=2.096e-05
+ NRD=0.0173	NRS=0.0173
MMM43@21	VDDA#928	VDDA#124	VDDA#891	VDDA	pe3
+ L=1e-05	W=1e-05
+ AD=4.8e-12	AS=4.8e-12	PD=2.096e-05	PS=2.096e-05
+ NRD=0.0173	NRS=0.0173
MMM43@20	VDDA#881	VDDA#115	VDDA#844	VDDA	pe3
+ L=1e-05	W=1e-05
+ AD=4.8e-12	AS=4.8e-12	PD=2.096e-05	PS=2.096e-05
+ NRD=0.0173	NRS=0.0173
MMM43@22	VDDA#276	VDDA#7	VDDA#269	VDDA	pe3	L=1e-05
+ W=1e-05
+ AD=4.8e-12	AS=4.8e-12	PD=2.096e-05	PS=2.096e-05
+ NRD=0.0173	NRS=0.0173
MMM23@4	net12#158	net12#43	VDDA#263	VDDA	pe3	L=1e-05
+ W=1e-05
+ AD=4.8e-12	AS=4.8e-12	PD=2.096e-05	PS=2.096e-05
+ NRD=0.0173	NRS=0.0173
MMM28	net8#33	net8#7	VDDA#160	VDDA	pe3	L=1e-05
+ W=1e-05
+ AD=4.8e-12	AS=4.8e-12	PD=2.096e-05	PS=2.096e-05
+ NRD=0.0173	NRS=0.0173
MMM27	net10#1	net8	VDDA#154	VDDA	pe3	L=1e-05
+ W=1e-05
+ AD=4.8e-12	AS=4.8e-12	PD=2.096e-05	PS=2.096e-05
+ NRD=0.0173	NRS=0.0173
MMM43@11	VDDA#926	VDDA#122	VDDA#887	VDDA	pe3
+ L=1e-05	W=2e-06
+ AD=9.6e-13	AS=9.6e-13	PD=4.96e-06	PS=4.96e-06
+ NRD=0.0865	NRS=0.0865
MMM36@1	VDDA#879	VDDA#113	VDDA#840	VDDA	pe3	L=1e-05
+ W=2e-06
+ AD=9.6e-13	AS=9.6e-13	PD=4.96e-06	PS=4.96e-06
+ NRD=0.0865	NRS=0.0865
MMM42@15	VDDA#931	VDDA#128	VDDA#889	VDDA	pe3
+ L=1e-05	W=2e-06
+ AD=9.6e-13	AS=9.6e-13	PD=4.96e-06	PS=4.96e-06
+ NRD=0.0865	NRS=0.0865
MMM43@9	VDDA#884	VDDA#119	VDDA#842	VDDA	pe3	L=1e-05
+ W=2e-06
+ AD=9.6e-13	AS=9.6e-13	PD=4.96e-06	PS=4.96e-06
+ NRD=0.0865	NRS=0.0865
MMM43@10	VDDA#832	VDDA#104	VDDA#793	VDDA	pe3
+ L=1e-05	W=2e-06
+ AD=9.6e-13	AS=9.6e-13	PD=4.96e-06	PS=4.96e-06
+ NRD=0.0865	NRS=0.0865
MMM36@3	VDDA#785	VDDA#95	VDDA#746	VDDA	pe3	L=1e-05
+ W=2e-06
+ AD=9.6e-13	AS=9.6e-13	PD=4.96e-06	PS=4.96e-06
+ NRD=0.0865	NRS=0.0865
MMM43@23	VDDA#837	VDDA#110	VDDA#795	VDDA	pe3
+ L=1e-05	W=2e-06
+ AD=9.6e-13	AS=9.6e-13	PD=4.96e-06	PS=4.96e-06
+ NRD=0.0865	NRS=0.0865
MMM42@9	VDDA#790	VDDA#101	VDDA#748	VDDA	pe3	L=1e-05
+ W=2e-06
+ AD=9.6e-13	AS=9.6e-13	PD=4.96e-06	PS=4.96e-06
+ NRD=0.0865	NRS=0.0865
MMM36@2	VDDA#738	VDDA#86	VDDA#699	VDDA	pe3	L=1e-05
+ W=2e-06
+ AD=9.6e-13	AS=9.6e-13	PD=4.96e-06	PS=4.96e-06
+ NRD=0.0865	NRS=0.0865
MMM42@8	VDDA#694	VDDA#80	VDDA#661	VDDA	pe3	L=1e-05
+ W=2e-06
+ AD=9.6e-13	AS=9.6e-13	PD=4.96e-06	PS=4.96e-06
+ NRD=0.0865	NRS=0.0865
MMM42@4	VDDA#743	VDDA#92	VDDA#701	VDDA	pe3	L=1e-05
+ W=2e-06
+ AD=9.6e-13	AS=9.6e-13	PD=4.96e-06	PS=4.96e-06
+ NRD=0.0865	NRS=0.0865
MMM42@3	VDDA#696	VDDA#83	VDDA#663	VDDA	pe3	L=1e-05
+ W=2e-06
+ AD=9.6e-13	AS=9.6e-13	PD=4.96e-06	PS=4.96e-06
+ NRD=0.0865	NRS=0.0865
MMM36	VDDA#656	VDDA#74	VDDA#623	VDDA	pe3	L=1e-05
+ W=2e-06
+ AD=9.6e-13	AS=9.6e-13	PD=4.96e-06	PS=4.96e-06
+ NRD=0.0865	NRS=0.0865
MMM43@12	VDDA#618	VDDA#68	VDDA#585	VDDA	pe3
+ L=1e-05	W=2e-06
+ AD=9.6e-13	AS=9.6e-13	PD=4.96e-06	PS=4.96e-06
+ NRD=0.0865	NRS=0.0865
MMM42@5	VDDA#658	VDDA#77	VDDA#625	VDDA	pe3	L=1e-05
+ W=2e-06
+ AD=9.6e-13	AS=9.6e-13	PD=4.96e-06	PS=4.96e-06
+ NRD=0.0865	NRS=0.0865
MMM42	VDDA#620	VDDA#71	VDDA#587	VDDA	pe3	L=1e-05
+ W=2e-06
+ AD=9.6e-13	AS=9.6e-13	PD=4.96e-06	PS=4.96e-06
+ NRD=0.0865	NRS=0.0865
MMM43	VDDA#580	VDDA#62	VDDA#547	VDDA	pe3	L=1e-05
+ W=2e-06
+ AD=9.6e-13	AS=9.6e-13	PD=4.96e-06	PS=4.96e-06
+ NRD=0.0865	NRS=0.0865
MMM43@2	VDDA#542	VDDA#56	VDDA#509	VDDA	pe3	L=1e-05
+ W=2e-06
+ AD=9.6e-13	AS=9.6e-13	PD=4.96e-06	PS=4.96e-06
+ NRD=0.0865	NRS=0.0865
MMM42@1	VDDA#582	VDDA#65	VDDA#549	VDDA	pe3	L=1e-05
+ W=2e-06
+ AD=9.6e-13	AS=9.6e-13	PD=4.96e-06	PS=4.96e-06
+ NRD=0.0865	NRS=0.0865
MMM42@2	VDDA#544	VDDA#59	VDDA#511	VDDA	pe3	L=1e-05
+ W=2e-06
+ AD=9.6e-13	AS=9.6e-13	PD=4.96e-06	PS=4.96e-06
+ NRD=0.0865	NRS=0.0865
MMM42@7	VDDA#504	VDDA#50	VDDA#471	VDDA	pe3	L=1e-05
+ W=2e-06
+ AD=9.6e-13	AS=9.6e-13	PD=4.96e-06	PS=4.96e-06
+ NRD=0.0865	NRS=0.0865
MMM42@12	VDDA#466	VDDA#44	VDDA#433	VDDA	pe3
+ L=1e-05	W=2e-06
+ AD=9.6e-13	AS=9.6e-13	PD=4.96e-06	PS=4.96e-06
+ NRD=0.0865	NRS=0.0865
MMM43@7	VDDA#506	VDDA#53	VDDA#473	VDDA	pe3	L=1e-05
+ W=2e-06
+ AD=9.6e-13	AS=9.6e-13	PD=4.96e-06	PS=4.96e-06
+ NRD=0.0865	NRS=0.0865
MMM43@6	VDDA#468	VDDA#47	VDDA#435	VDDA	pe3	L=1e-05
+ W=2e-06
+ AD=9.6e-13	AS=9.6e-13	PD=4.96e-06	PS=4.96e-06
+ NRD=0.0865	NRS=0.0865
MMM43@8	VDDA#428	VDDA#38	VDDA#395	VDDA	pe3	L=1e-05
+ W=2e-06
+ AD=9.6e-13	AS=9.6e-13	PD=4.96e-06	PS=4.96e-06
+ NRD=0.0865	NRS=0.0865
MMM43@14	VDDA#372	VDDA#14	VDDA#289	VDDA	pe3
+ L=1e-05	W=2e-06
+ AD=9.6e-13	AS=9.6e-13	PD=4.96e-06	PS=4.96e-06
+ NRD=0.0865	NRS=0.0865
MMM43@3	VDDA#430	VDDA#41	VDDA#400	VDDA	pe3	L=1e-05
+ W=2e-06
+ AD=9.6e-13	AS=9.6e-13	PD=4.96e-06	PS=4.96e-06
+ NRD=0.0865	NRS=0.0865
MMM43@5	VDDA#389	VDDA#35	VDDA#323	VDDA	pe3	L=1e-05
+ W=2e-06
+ AD=9.6e-13	AS=9.6e-13	PD=4.96e-06	PS=4.96e-06
+ NRD=0.0865	NRS=0.0865
MMM43@4	VDDA#1006	VDDA#131	VDDA#934	VDDA	pe3	L=1e-05
+ W=2e-06
+ AD=9.6e-13	AS=9.6e-13	PD=4.96e-06	PS=4.96e-06
+ NRD=0.0865	NRS=0.0865
MMM42@6	VDDA#1040	VDDA#152	VDDA#936	VDDA	pe3	L=1e-05
+ W=2e-06
+ AD=9.6e-13	AS=9.6e-13	PD=4.96e-06	PS=4.96e-06
+ NRD=0.0865	NRS=0.0865
MMM15	GNDA#132	D0#4	net6#4	VDDA	pe3	L=3.5e-07	W=1e-05
+ AD=2.7e-12	AS=4.8e-12	PD=1.054e-05	PS=2.096e-05
+ NRD=0.0173	NRS=0.0173
MMM15@1	GNDA#132	D0#1	net6#6	VDDA	pe3	L=3.5e-07	W=1e-05
+ AD=2.7e-12	AS=4.8e-12	PD=1.054e-05	PS=2.096e-05
+ NRD=0.0173	NRS=0.0173
MMM16	GNDA#139	D1#4	net1#7	VDDA	pe3	L=3.5e-07	W=1e-05
+ AD=2.7e-12	AS=4.8e-12	PD=1.054e-05	PS=2.096e-05
+ NRD=0.0173	NRS=0.0173
MMM16@1	GNDA#139	D1#1	net1#9	VDDA	pe3	L=3.5e-07	W=1e-05
+ AD=2.7e-12	AS=4.8e-12	PD=1.054e-05	PS=2.096e-05
+ NRD=0.0173	NRS=0.0173
MMM17	GNDA#141	D2#4	net2#13	VDDA	pe3	L=3.5e-07
+ W=1e-05
+ AD=2.7e-12	AS=4.8e-12	PD=1.054e-05	PS=2.096e-05
+ NRD=0.0173	NRS=0.0173
MMM17@1	GNDA#141	D2#1	net2#15	VDDA	pe3	L=3.5e-07
+ W=1e-05
+ AD=2.7e-12	AS=4.8e-12	PD=1.054e-05	PS=2.096e-05
+ NRD=0.0173	NRS=0.0173
MMM18@1	GNDA#143	D3#4	net3#25	VDDA	pe3	L=3.5e-07
+ W=1e-05
+ AD=2.7e-12	AS=4.8e-12	PD=1.054e-05	PS=2.096e-05
+ NRD=0.0173	NRS=0.0173
MMM18	GNDA#143	D3#1	net3#27	VDDA	pe3	L=3.5e-07
+ W=1e-05
+ AD=2.7e-12	AS=4.8e-12	PD=1.054e-05	PS=2.096e-05
+ NRD=0.0173	NRS=0.0173
MMM19	GNDA#145	D4#4	net4#52	VDDA	pe3	L=3.5e-07
+ W=1e-05
+ AD=2.7e-12	AS=4.8e-12	PD=1.054e-05	PS=2.096e-05
+ NRD=0.0173	NRS=0.0173
MMM19@1	GNDA#145	D4#1	net4#66	VDDA	pe3	L=3.5e-07
+ W=1e-05
+ AD=2.7e-12	AS=4.8e-12	PD=1.054e-05	PS=2.096e-05
+ NRD=0.0173	NRS=0.0173
MMM20@1	GNDA#147	D5#4	net5#88	VDDA	pe3	L=3.5e-07
+ W=1e-05
+ AD=2.7e-12	AS=4.8e-12	PD=1.054e-05	PS=2.096e-05
+ NRD=0.0173	NRS=0.0173
MMM20	GNDA#147	D5#1	net5#90	VDDA	pe3	L=3.5e-07
+ W=1e-05
+ AD=2.7e-12	AS=4.8e-12	PD=1.054e-05	PS=2.096e-05
+ NRD=0.0173	NRS=0.0173
MMM35	EN#15	ENABLE#3	VDDA#202	VDDA	pe3	L=3e-07
+ W=6e-06
+ AD=2.88e-12	AS=2.88e-12	PD=1.296e-05	PS=1.296e-05
+ NRD=0.0288333	NRS=0.0288333
MMM29	net30#154	net30#3	net10#7	net10	pe3	L=2e-05
+ W=1e-05
+ AD=4.8e-12	AS=4.8e-12	PD=2.096e-05	PS=2.096e-05
+ NRD=0.0173	NRS=0.0173
MMM30	net34#8	net34#3	net30#158	net30	pe3	L=2e-05
+ W=1e-05
+ AD=4.8e-12	AS=4.8e-12	PD=2.096e-05	PS=2.096e-05
+ NRD=0.0173	NRS=0.0173
MMM31	GNDA#128	GNDA#13	net34#12	net34	pe3	L=2e-05
+ W=1e-05
+ AD=4.8e-12	AS=4.8e-12	PD=2.096e-05	PS=2.096e-05
+ NRD=0.0173	NRS=0.0173
MMM21@8	net14#69	net30#6	net19	VDDA	pe3	L=1e-06
+ W=1e-05
+ AD=2.7e-12	AS=4.8e-12	PD=1.054e-05	PS=2.096e-05
+ NRD=0.0173	NRS=0.0173
MMM21@6	net14#69	net30#8	net19#4	VDDA	pe3	L=1e-06
+ W=1e-05
+ AD=2.7e-12	AS=2.7e-12	PD=1.054e-05	PS=1.054e-05
+ NRD=0.0173	NRS=0.0173
MMM21@1	net14#72	net30#10	net19#4	VDDA	pe3	L=1e-06
+ W=1e-05
+ AD=2.7e-12	AS=2.7e-12	PD=1.054e-05	PS=1.054e-05
+ NRD=0.0173	NRS=0.0173
MMM21	net14#72	net30#12	net19#7	VDDA	pe3	L=1e-06
+ W=1e-05
+ AD=2.7e-12	AS=2.7e-12	PD=1.054e-05	PS=1.054e-05
+ NRD=0.0173	NRS=0.0173
MMM21@5	net14#75	net30#14	net19#7	VDDA	pe3	L=1e-06
+ W=1e-05
+ AD=2.7e-12	AS=2.7e-12	PD=1.054e-05	PS=1.054e-05
+ NRD=0.0173	NRS=0.0173
MMM21@3	net14#75	net30#16	net19#10	VDDA	pe3	L=1e-06
+ W=1e-05
+ AD=2.7e-12	AS=2.7e-12	PD=1.054e-05	PS=1.054e-05
+ NRD=0.0173	NRS=0.0173
MMM21@4	net14#78	net30#18	net19#10	VDDA	pe3	L=1e-06
+ W=1e-05
+ AD=2.7e-12	AS=2.7e-12	PD=1.054e-05	PS=1.054e-05
+ NRD=0.0173	NRS=0.0173
MMM21@9	net14#78	net30#20	net19#13	VDDA	pe3	L=1e-06
+ W=1e-05
+ AD=2.7e-12	AS=2.7e-12	PD=1.054e-05	PS=1.054e-05
+ NRD=0.0173	NRS=0.0173
MMM21@2	net14#81	net30#22	net19#13	VDDA	pe3	L=1e-06
+ W=1e-05
+ AD=2.7e-12	AS=2.7e-12	PD=1.054e-05	PS=1.054e-05
+ NRD=0.0173	NRS=0.0173
MMM21@7	net14#81	net30#24	net19#16	VDDA	pe3	L=1e-06
+ W=1e-05
+ AD=2.7e-12	AS=4.8e-12	PD=1.054e-05	PS=2.096e-05
+ NRD=0.0173	NRS=0.0173
MMM11@27	VOUT#9	net30#26	net5#22	VDDA	pe3	L=1e-06
+ W=1e-05
+ AD=2.7e-12	AS=4.8e-12	PD=1.054e-05	PS=2.096e-05
+ NRD=0.0173	NRS=0.0173
MMM11@31	VOUT#9	net30#28	net5#28	VDDA	pe3	L=1e-06
+ W=1e-05
+ AD=2.7e-12	AS=2.7e-12	PD=1.054e-05	PS=1.054e-05
+ NRD=0.0173	NRS=0.0173
MMM11@29	VOUT#12	net30#30	net5#28	VDDA	pe3
+ L=1e-06	W=1e-05
+ AD=2.7e-12	AS=2.7e-12	PD=1.054e-05	PS=1.054e-05
+ NRD=0.0173	NRS=0.0173
MMM11@15	VOUT#12	net30#32	net5#31	VDDA	pe3
+ L=1e-06	W=1e-05
+ AD=2.7e-12	AS=2.7e-12	PD=1.054e-05	PS=1.054e-05
+ NRD=0.0173	NRS=0.0173
MMM11@6	VOUT#15	net30#34	net5#31	VDDA	pe3	L=1e-06
+ W=1e-05
+ AD=2.7e-12	AS=2.7e-12	PD=1.054e-05	PS=1.054e-05
+ NRD=0.0173	NRS=0.0173
MMM11@19	VOUT#15	net30#36	net5#34	VDDA	pe3
+ L=1e-06	W=1e-05
+ AD=2.7e-12	AS=2.7e-12	PD=1.054e-05	PS=1.054e-05
+ NRD=0.0173	NRS=0.0173
MMM11@5	VOUT#18	net30#38	net5#34	VDDA	pe3	L=1e-06
+ W=1e-05
+ AD=2.7e-12	AS=2.7e-12	PD=1.054e-05	PS=1.054e-05
+ NRD=0.0173	NRS=0.0173
MMM11@12	VOUT#18	net30#40	net5#37	VDDA	pe3
+ L=1e-06	W=1e-05
+ AD=2.7e-12	AS=2.7e-12	PD=1.054e-05	PS=1.054e-05
+ NRD=0.0173	NRS=0.0173
MMM11@1	VOUT#21	net30#42	net5#37	VDDA	pe3	L=1e-06
+ W=1e-05
+ AD=2.7e-12	AS=2.7e-12	PD=1.054e-05	PS=1.054e-05
+ NRD=0.0173	NRS=0.0173
MMM11@14	VOUT#21	net30#44	net5#43	VDDA	pe3
+ L=1e-06	W=1e-05
+ AD=2.7e-12	AS=2.7e-12	PD=1.054e-05	PS=1.054e-05
+ NRD=0.0173	NRS=0.0173
MMM11@21	VOUT#24	net30#46	net5#43	VDDA	pe3
+ L=1e-06	W=1e-05
+ AD=2.7e-12	AS=2.7e-12	PD=1.054e-05	PS=1.054e-05
+ NRD=0.0173	NRS=0.0173
MMM11@28	VOUT#24	net30#48	net5#46	VDDA	pe3
+ L=1e-06	W=1e-05
+ AD=2.7e-12	AS=2.7e-12	PD=1.054e-05	PS=1.054e-05
+ NRD=0.0173	NRS=0.0173
MMM11@22	VOUT#27	net30#50	net5#46	VDDA	pe3
+ L=1e-06	W=1e-05
+ AD=2.7e-12	AS=2.7e-12	PD=1.054e-05	PS=1.054e-05
+ NRD=0.0173	NRS=0.0173
MMM11@30	VOUT#27	net30#52	net5#49	VDDA	pe3
+ L=1e-06	W=1e-05
+ AD=2.7e-12	AS=2.7e-12	PD=1.054e-05	PS=1.054e-05
+ NRD=0.0173	NRS=0.0173
MMM11@20	VOUT#30	net30#54	net5#49	VDDA	pe3
+ L=1e-06	W=1e-05
+ AD=2.7e-12	AS=2.7e-12	PD=1.054e-05	PS=1.054e-05
+ NRD=0.0173	NRS=0.0173
MMM11@9	VOUT#30	net30#56	net5#52	VDDA	pe3	L=1e-06
+ W=1e-05
+ AD=2.7e-12	AS=2.7e-12	PD=1.054e-05	PS=1.054e-05
+ NRD=0.0173	NRS=0.0173
MMM11@17	VOUT#33	net30#58	net5#52	VDDA	pe3
+ L=1e-06	W=1e-05
+ AD=2.7e-12	AS=2.7e-12	PD=1.054e-05	PS=1.054e-05
+ NRD=0.0173	NRS=0.0173
MMM11	VOUT#33	net30#60	net5#58	VDDA	pe3	L=1e-06
+ W=1e-05
+ AD=2.7e-12	AS=2.7e-12	PD=1.054e-05	PS=1.054e-05
+ NRD=0.0173	NRS=0.0173
MMM11@18	VOUT#36	net30#62	net5#58	VDDA	pe3
+ L=1e-06	W=1e-05
+ AD=2.7e-12	AS=2.7e-12	PD=1.054e-05	PS=1.054e-05
+ NRD=0.0173	NRS=0.0173
MMM11@16	VOUT#36	net30#64	net5#61	VDDA	pe3
+ L=1e-06	W=1e-05
+ AD=2.7e-12	AS=2.7e-12	PD=1.054e-05	PS=1.054e-05
+ NRD=0.0173	NRS=0.0173
MMM11@11	VOUT#39	net30#66	net5#61	VDDA	pe3
+ L=1e-06	W=1e-05
+ AD=2.7e-12	AS=2.7e-12	PD=1.054e-05	PS=1.054e-05
+ NRD=0.0173	NRS=0.0173
MMM11@23	VOUT#39	net30#68	net5#64	VDDA	pe3
+ L=1e-06	W=1e-05
+ AD=2.7e-12	AS=2.7e-12	PD=1.054e-05	PS=1.054e-05
+ NRD=0.0173	NRS=0.0173
MMM11@7	VOUT#42	net30#70	net5#64	VDDA	pe3	L=1e-06
+ W=1e-05
+ AD=2.7e-12	AS=2.7e-12	PD=1.054e-05	PS=1.054e-05
+ NRD=0.0173	NRS=0.0173
MMM11@4	VOUT#42	net30#72	net5#67	VDDA	pe3	L=1e-06
+ W=1e-05
+ AD=2.7e-12	AS=2.7e-12	PD=1.054e-05	PS=1.054e-05
+ NRD=0.0173	NRS=0.0173
MMM11@26	VOUT#45	net30#74	net5#67	VDDA	pe3
+ L=1e-06	W=1e-05
+ AD=2.7e-12	AS=2.7e-12	PD=1.054e-05	PS=1.054e-05
+ NRD=0.0173	NRS=0.0173
MMM11@8	VOUT#45	net30#76	net5#70	VDDA	pe3	L=1e-06
+ W=1e-05
+ AD=2.7e-12	AS=2.7e-12	PD=1.054e-05	PS=1.054e-05
+ NRD=0.0173	NRS=0.0173
MMM11@25	VOUT#48	net30#78	net5#70	VDDA	pe3
+ L=1e-06	W=1e-05
+ AD=2.7e-12	AS=2.7e-12	PD=1.054e-05	PS=1.054e-05
+ NRD=0.0173	NRS=0.0173
MMM11@3	VOUT#48	net30#80	net5#73	VDDA	pe3	L=1e-06
+ W=1e-05
+ AD=2.7e-12	AS=2.7e-12	PD=1.054e-05	PS=1.054e-05
+ NRD=0.0173	NRS=0.0173
MMM11@2	VOUT#51	net30#82	net5#73	VDDA	pe3	L=1e-06
+ W=1e-05
+ AD=2.7e-12	AS=2.7e-12	PD=1.054e-05	PS=1.054e-05
+ NRD=0.0173	NRS=0.0173
MMM11@10	VOUT#51	net30#84	net5#76	VDDA	pe3
+ L=1e-06	W=1e-05
+ AD=2.7e-12	AS=2.7e-12	PD=1.054e-05	PS=1.054e-05
+ NRD=0.0173	NRS=0.0173
MMM11@13	VOUT#54	net30#86	net5#76	VDDA	pe3
+ L=1e-06	W=1e-05
+ AD=2.7e-12	AS=2.7e-12	PD=1.054e-05	PS=1.054e-05
+ NRD=0.0173	NRS=0.0173
MMM11@24	VOUT#54	net30#88	net5#82	VDDA	pe3
+ L=1e-06	W=1e-05
+ AD=2.7e-12	AS=4.8e-12	PD=1.054e-05	PS=2.096e-05
+ NRD=0.0173	NRS=0.0173
MMM10@5	VOUT#57	net30#90	net4#31	VDDA	pe3	L=1e-06
+ W=1e-05
+ AD=2.7e-12	AS=4.8e-12	PD=1.054e-05	PS=2.096e-05
+ NRD=0.0173	NRS=0.0173
MMM10@2	VOUT#57	net30#92	net4#34	VDDA	pe3	L=1e-06
+ W=1e-05
+ AD=2.7e-12	AS=2.7e-12	PD=1.054e-05	PS=1.054e-05
+ NRD=0.0173	NRS=0.0173
MMM10@14	VOUT#60	net30#94	net4#34	VDDA	pe3
+ L=1e-06	W=1e-05
+ AD=2.7e-12	AS=2.7e-12	PD=1.054e-05	PS=1.054e-05
+ NRD=0.0173	NRS=0.0173
MMM10	VOUT#60	net30#96	net4#43	VDDA	pe3	L=1e-06
+ W=1e-05
+ AD=2.7e-12	AS=2.7e-12	PD=1.054e-05	PS=1.054e-05
+ NRD=0.0173	NRS=0.0173
MMM10@4	VOUT#63	net30#98	net4#43	VDDA	pe3	L=1e-06
+ W=1e-05
+ AD=2.7e-12	AS=2.7e-12	PD=1.054e-05	PS=1.054e-05
+ NRD=0.0173	NRS=0.0173
MMM10@11	VOUT#63	net30#100	net4#46	VDDA	pe3
+ L=1e-06	W=1e-05
+ AD=2.7e-12	AS=2.7e-12	PD=1.054e-05	PS=1.054e-05
+ NRD=0.0173	NRS=0.0173
MMM10@6	VOUT#66	net30#102	net4#46	VDDA	pe3	L=1e-06
+ W=1e-05
+ AD=2.7e-12	AS=2.7e-12	PD=1.054e-05	PS=1.054e-05
+ NRD=0.0173	NRS=0.0173
MMM10@1	VOUT#66	net30#104	net4#49	VDDA	pe3	L=1e-06
+ W=1e-05
+ AD=2.7e-12	AS=2.7e-12	PD=1.054e-05	PS=1.054e-05
+ NRD=0.0173	NRS=0.0173
MMM10@7	VOUT#69	net30#106	net4#49	VDDA	pe3	L=1e-06
+ W=1e-05
+ AD=2.7e-12	AS=2.7e-12	PD=1.054e-05	PS=1.054e-05
+ NRD=0.0173	NRS=0.0173
MMM10@12	VOUT#69	net30#108	net4#68	VDDA	pe3
+ L=1e-06	W=1e-05
+ AD=2.7e-12	AS=2.7e-12	PD=1.054e-05	PS=1.054e-05
+ NRD=0.0173	NRS=0.0173
MMM10@10	VOUT#72	net30#110	net4#68	VDDA	pe3
+ L=1e-06	W=1e-05
+ AD=2.7e-12	AS=2.7e-12	PD=1.054e-05	PS=1.054e-05
+ NRD=0.0173	NRS=0.0173
MMM10@9	VOUT#72	net30#112	net4#71	VDDA	pe3	L=1e-06
+ W=1e-05
+ AD=2.7e-12	AS=2.7e-12	PD=1.054e-05	PS=1.054e-05
+ NRD=0.0173	NRS=0.0173
MMM10@3	VOUT#75	net30#114	net4#71	VDDA	pe3	L=1e-06
+ W=1e-05
+ AD=2.7e-12	AS=2.7e-12	PD=1.054e-05	PS=1.054e-05
+ NRD=0.0173	NRS=0.0173
MMM10@13	VOUT#75	net30#116	net4#74	VDDA	pe3
+ L=1e-06	W=1e-05
+ AD=2.7e-12	AS=2.7e-12	PD=1.054e-05	PS=1.054e-05
+ NRD=0.0173	NRS=0.0173
MMM10@15	VOUT#78	net30#118	net4#74	VDDA	pe3
+ L=1e-06	W=1e-05
+ AD=2.7e-12	AS=2.7e-12	PD=1.054e-05	PS=1.054e-05
+ NRD=0.0173	NRS=0.0173
MMM10@8	VOUT#78	net30#120	net4#77	VDDA	pe3	L=1e-06
+ W=1e-05
+ AD=2.7e-12	AS=4.8e-12	PD=1.054e-05	PS=2.096e-05
+ NRD=0.0173	NRS=0.0173
MMM9@1	VOUT#81	net30#122	net3#29	VDDA	pe3	L=1e-06
+ W=1e-05
+ AD=2.7e-12	AS=4.8e-12	PD=1.054e-05	PS=2.096e-05
+ NRD=0.0173	NRS=0.0173
MMM9@3	VOUT#81	net30#124	net3#32	VDDA	pe3	L=1e-06
+ W=1e-05
+ AD=2.7e-12	AS=2.7e-12	PD=1.054e-05	PS=1.054e-05
+ NRD=0.0173	NRS=0.0173
MMM9@2	VOUT#84	net30#126	net3#32	VDDA	pe3	L=1e-06
+ W=1e-05
+ AD=2.7e-12	AS=2.7e-12	PD=1.054e-05	PS=1.054e-05
+ NRD=0.0173	NRS=0.0173
MMM9@7	VOUT#84	net30#128	net3#35	VDDA	pe3	L=1e-06
+ W=1e-05
+ AD=2.7e-12	AS=2.7e-12	PD=1.054e-05	PS=1.054e-05
+ NRD=0.0173	NRS=0.0173
MMM9	VOUT#87	net30#130	net3#35	VDDA	pe3	L=1e-06
+ W=1e-05
+ AD=2.7e-12	AS=2.7e-12	PD=1.054e-05	PS=1.054e-05
+ NRD=0.0173	NRS=0.0173
MMM9@5	VOUT#87	net30#132	net3#38	VDDA	pe3	L=1e-06
+ W=1e-05
+ AD=2.7e-12	AS=2.7e-12	PD=1.054e-05	PS=1.054e-05
+ NRD=0.0173	NRS=0.0173
MMM9@6	VOUT#90	net30#134	net3#38	VDDA	pe3	L=1e-06
+ W=1e-05
+ AD=2.7e-12	AS=2.7e-12	PD=1.054e-05	PS=1.054e-05
+ NRD=0.0173	NRS=0.0173
MMM9@4	VOUT#90	net30#136	net3#41	VDDA	pe3	L=1e-06
+ W=1e-05
+ AD=2.7e-12	AS=4.8e-12	PD=1.054e-05	PS=2.096e-05
+ NRD=0.0173	NRS=0.0173
MMM8@3	VOUT#93	net30#138	net2#17	VDDA	pe3	L=1e-06
+ W=1e-05
+ AD=2.7e-12	AS=4.8e-12	PD=1.054e-05	PS=2.096e-05
+ NRD=0.0173	NRS=0.0173
MMM8@1	VOUT#93	net30#140	net2#20	VDDA	pe3	L=1e-06
+ W=1e-05
+ AD=2.7e-12	AS=2.7e-12	PD=1.054e-05	PS=1.054e-05
+ NRD=0.0173	NRS=0.0173
MMM8	VOUT#96	net30#142	net2#20	VDDA	pe3	L=1e-06
+ W=1e-05
+ AD=2.7e-12	AS=2.7e-12	PD=1.054e-05	PS=1.054e-05
+ NRD=0.0173	NRS=0.0173
MMM8@2	VOUT#96	net30#144	net2#23	VDDA	pe3	L=1e-06
+ W=1e-05
+ AD=2.7e-12	AS=4.8e-12	PD=1.054e-05	PS=2.096e-05
+ NRD=0.0173	NRS=0.0173
MMM7@1	VOUT#99	net30#146	net1#11	VDDA	pe3	L=1e-06
+ W=1e-05
+ AD=2.7e-12	AS=4.8e-12	PD=1.054e-05	PS=2.096e-05
+ NRD=0.0173	NRS=0.0173
MMM7	VOUT#99	net30#148	net1#14	VDDA	pe3	L=1e-06
+ W=1e-05
+ AD=2.7e-12	AS=4.8e-12	PD=1.054e-05	PS=2.096e-05
+ NRD=0.0173	NRS=0.0173
MMM6	VOUT#102	net30#150	net6#8	VDDA	pe3	L=1e-06
+ W=1e-05
+ AD=4.8e-12	AS=4.8e-12	PD=2.096e-05	PS=2.096e-05
+ NRD=0.0173	NRS=0.0173
MMM43@1	VDDA#1010	VDDA#133	VDDA#941	VDDA	pe3	L=1e-05
+ W=1e-05
+ AD=4.8e-12	AS=4.8e-12	PD=2.096e-05	PS=2.096e-05
+ NRD=0.0173	NRS=0.0173
MMM42@10	VDDA#1015	VDDA#136	VDDA#944	VDDA	pe3
+ L=1e-05	W=1e-05
+ AD=4.8e-12	AS=4.8e-12	PD=2.096e-05	PS=2.096e-05
+ NRD=0.0173	NRS=0.0173
MMM42@11	VDDA#1020	VDDA#139	VDDA#947	VDDA	pe3
+ L=1e-05	W=1e-05
+ AD=4.8e-12	AS=4.8e-12	PD=2.096e-05	PS=2.096e-05
+ NRD=0.0173	NRS=0.0173
MMM43@19	VDDA#1025	VDDA#142	VDDA#950	VDDA	pe3
+ L=1e-05	W=1e-05
+ AD=4.8e-12	AS=4.8e-12	PD=2.096e-05	PS=2.096e-05
+ NRD=0.0173	NRS=0.0173
MMM42@13	VDDA#1030	VDDA#145	VDDA#953	VDDA	pe3
+ L=1e-05	W=1e-05
+ AD=4.8e-12	AS=4.8e-12	PD=2.096e-05	PS=2.096e-05
+ NRD=0.0173	NRS=0.0173
MMM43@18	VDDA#1035	VDDA#148	VDDA#938	VDDA	pe3
+ L=1e-05	W=1e-05
+ AD=4.8e-12	AS=4.8e-12	PD=2.096e-05	PS=2.096e-05
+ NRD=0.0173	NRS=0.0173
MMM43@17	VDDA#282	VDDA#12	VDDA#272	VDDA	pe3
+ L=1e-05	W=1e-05
+ AD=4.8e-12	AS=4.8e-12	PD=2.096e-05	PS=2.096e-05
+ NRD=0.0173	NRS=0.0173
MMM22@5	net7#273	net12#48	VDDA#266	VDDA	pe3	L=1e-05
+ W=1e-05
+ AD=4.8e-12	AS=4.8e-12	PD=2.096e-05	PS=2.096e-05
+ NRD=0.0173	NRS=0.0173
MMM23	net12#148	net12#42	VDDA#260	VDDA	pe3	L=1e-05
+ W=1e-05
+ AD=4.8e-12	AS=4.8e-12	PD=2.096e-05	PS=2.096e-05
+ NRD=0.0173	NRS=0.0173
MMM22@4	net7#267	net12#36	VDDA#227	VDDA	pe3	L=1e-05
+ W=1e-05
+ AD=4.8e-12	AS=4.8e-12	PD=2.096e-05	PS=2.096e-05
+ NRD=0.0173	NRS=0.0173
MMM23@3	net12#124	net12#30	VDDA#221	VDDA	pe3	L=1e-05
+ W=1e-05
+ AD=4.8e-12	AS=4.8e-12	PD=2.096e-05	PS=2.096e-05
+ NRD=0.0173	NRS=0.0173
MMM22@7	net7#251	net12#24	VDDA#215	VDDA	pe3	L=1e-05
+ W=1e-05
+ AD=4.8e-12	AS=4.8e-12	PD=2.096e-05	PS=2.096e-05
+ NRD=0.0173	NRS=0.0173
MMM23@5	net12#92	net12#18	VDDA#200	VDDA	pe3	L=1e-05
+ W=1e-05
+ AD=4.8e-12	AS=4.8e-12	PD=2.096e-05	PS=2.096e-05
+ NRD=0.0173	NRS=0.0173
MMM22@6	net7#231	net12#12	VDDA#194	VDDA	pe3	L=1e-05
+ W=1e-05
+ AD=4.8e-12	AS=4.8e-12	PD=2.096e-05	PS=2.096e-05
+ NRD=0.0173	NRS=0.0173
MMM23@7	net12#58	net12#6	VDDA#187	VDDA	pe3	L=1e-05
+ W=1e-05
+ AD=4.8e-12	AS=4.8e-12	PD=2.096e-05	PS=2.096e-05
+ NRD=0.0173	NRS=0.0173
MMM42@14	VDDA#181	VDDA#6	VDDA#174	VDDA	pe3	L=1e-05
+ W=1e-05
+ AD=4.8e-12	AS=4.8e-12	PD=2.096e-05	PS=2.096e-05
+ NRD=0.0173	NRS=0.0173
MMM27@1	net10#4	net8#12	VDDA#163	VDDA	pe3	L=1e-05
+ W=1e-05
+ AD=4.8e-12	AS=4.8e-12	PD=2.096e-05	PS=2.096e-05
+ NRD=0.0173	NRS=0.0173
MMM28@1	net8#20	net8#6	VDDA#157	VDDA	pe3	L=1e-05
+ W=1e-05
+ AD=4.8e-12	AS=4.8e-12	PD=2.096e-05	PS=2.096e-05
+ NRD=0.0173	NRS=0.0173
*
*
*       CANONICAL RESISTOR AND CAP/DIODE CARDS
*
RRR1	GNDA#9	net14#3	rpp1k1_3 	L=0.0008227	W=4e-06
+ $SUB=GNDA 
RRR0	GNDA#15	VOUT#1	rpp1k1_3 	L=0.00021702	W=4e-06
+ $SUB=GNDA 
*
*       PARASITIC RESISTOR AND CAP/DIODE CARDS
*
Rc1	net7#864	net7#852	2.004980	$MET4	$W=1.96e-06
+ $X=63.65 $Y=111.7455
Rc2	net12#231	net12#221	2.004980	$MET4	$W=1.96e-06
+ $X=65.93 $Y=113.5255
Rc3	A#344	A#384	1.428367	$MET4	$W=1.96e-06
+ $X=132.33 $Y=112.6355
Rc4	A#384	A#342	1.964219	$MET4	$W=1.96e-06
+ $X=110.7605 $Y=92.92
Rc5	A#342	A#423	0.823637	$MET4	$W=1.96e-06
+ $X=74.6755 $Y=92.92
Rc6	A#423	A#383	1.428367	$MET4	$W=1.96e-06
+ $X=68.21 $Y=112.6345
Rc7	net7#855	net7#843	2.004980	$MET4	$W=1.96e-06
+ $X=134.61 $Y=111.7455
Rc8	net12#222	net12#212	2.004980	$MET4	$W=1.96e-06
+ $X=136.89 $Y=113.5255
Rc9	net4#131	net4#133	4.761931	$MET4	$W=1.96e-06
+ $X=252.9895 $Y=49.055
Rc10	net3#93	net3#83	2.196661	$MET4	$W=1.96e-06
+ $X=363.773 $Y=47.53
Rc11	net6#49	net6#40	1.730271	$MET4	$W=1.96e-06
+ $X=389.365 $Y=44.183
Rd1	BIAS#181	BIAS	0.251225	$MET3	$W=3.02e-06
+ $X=7.14 $Y=58.145
Rd2	net8#46	net8#49	1.356575	$MET3	$W=1.46e-06
+ $X=10.89 $Y=168.3305
Rd3	net8#49	net8#52	1.273452	$MET3	$W=1.46e-06
+ $X=10.89 $Y=152.7705
Rd4	net9#179	net9#206	1.100840	$MET3	$W=1.96e-06
+ $X=9.3005 $Y=49.995
Rd5	net9#206	net9#194	0.532724	$MET3	$W=1.96e-06
+ $X=6.66 $Y=34.2155
Rd6	net9#194	net9#199	1.044398	$MET3	$W=1.96e-06
+ $X=6.66 $Y=18.8155
Rd7	net10#28	net10#36	2.630027	$MET3	$W=1.46e-06
+ $X=41.77 $Y=159.1805
Rd8	net8#53	net8#50	5.742964	$MET3	$W=1.46e-06
+ $X=56.38 $Y=103.862
Rd9	net13#40	net13#51	1.952122	$MET3	$W=1.96e-06
+ $X=60.01 $Y=29.1705
Rd10	net15#40	net15#54	0.596448	$MET3	$W=1.96e-06
+ $X=62.29 $Y=49.252
Rd11	net15#40	net15#45	1.577122	$MET3	$W=1.96e-06
+ $X=62.29 $Y=27.3905
Rd12	A#342	A#227	0.562500	$MET3	$W=1.8e-06
+ $X=85.165 $Y=92.92
Rd13	ENABLE	ENABLE#11	0.502534	$MET3	$W=1.46e-06
+ $X=89.07 $Y=58.46
Rd14	net9#208	net9#215	1.604162	$MET3	$W=3e-07
+ $X=99.185 $Y=58.6405
Rd15	net9#215	net9#200	1.612234	$MET3	$W=3e-07
+ $X=97.5825 $Y=55.935
Rd16	net9#215	net9#207	0.294412	$MET3	$W=1.46e-06
+ $X=98.34 $Y=55.185
Rd17	A#344	A#336	0.095795	$MET3	$W=1.46e-06
+ $X=130.9955 $Y=126.585
Rd18	A#336	A#332	0.064370	$MET3	$W=1.46e-06
+ $X=130.44 $Y=126.585
Rd19	A#332	A#328	0.064370	$MET3	$W=1.46e-06
+ $X=128.5355 $Y=126.585
Rd20	A#328	A#324	0.107959	$MET3	$W=1.46e-06
+ $X=126.8355 $Y=126.585
Rd21	A#324	A#320	0.064370	$MET3	$W=1.46e-06
+ $X=125.77 $Y=126.585
Rd22	A#320	A#316	0.107959	$MET3	$W=1.46e-06
+ $X=123.4355 $Y=126.585
Rd23	A#316	A#312	0.064370	$MET3	$W=1.46e-06
+ $X=122.37 $Y=126.585
Rd24	A#312	A#308	0.107959	$MET3	$W=1.46e-06
+ $X=120.0355 $Y=126.585
Rd25	A#308	A#304	0.064370	$MET3	$W=1.46e-06
+ $X=118.97 $Y=126.585
Rd26	A#304	A#300	0.107959	$MET3	$W=1.46e-06
+ $X=116.6355 $Y=126.585
Rd27	A#300	A#296	0.064370	$MET3	$W=1.46e-06
+ $X=115.57 $Y=126.585
Rd28	A#296	A#292	0.107959	$MET3	$W=1.46e-06
+ $X=113.2355 $Y=126.585
Rd29	A#292	A#288	0.064370	$MET3	$W=1.46e-06
+ $X=112.17 $Y=126.585
Rd30	A#288	A#284	0.107959	$MET3	$W=1.46e-06
+ $X=109.8355 $Y=126.585
Rd31	A#284	A#280	0.064370	$MET3	$W=1.46e-06
+ $X=108.77 $Y=126.585
Rd32	A#280	A#276	0.107959	$MET3	$W=1.46e-06
+ $X=106.4355 $Y=126.585
Rd33	A#276	A#272	0.064370	$MET3	$W=1.46e-06
+ $X=105.37 $Y=126.585
Rd34	A#272	A#268	0.107959	$MET3	$W=1.46e-06
+ $X=103.0355 $Y=126.585
Rd35	A#268	A#264	0.064370	$MET3	$W=1.46e-06
+ $X=101.97 $Y=126.585
Rd36	A#264	A#260	0.107959	$MET3	$W=1.46e-06
+ $X=99.6355 $Y=126.585
Rd37	A#260	A#256	0.064370	$MET3	$W=1.46e-06
+ $X=98.57 $Y=126.585
Rd38	A#256	A#252	0.107959	$MET3	$W=1.46e-06
+ $X=96.2355 $Y=126.585
Rd39	A#252	A#248	0.064370	$MET3	$W=1.46e-06
+ $X=95.17 $Y=126.585
Rd40	A#248	A#244	0.107959	$MET3	$W=1.46e-06
+ $X=92.8355 $Y=126.585
Rd41	A#244	A#240	0.064370	$MET3	$W=1.46e-06
+ $X=91.77 $Y=126.585
Rd42	A#240	A#236	0.107959	$MET3	$W=1.46e-06
+ $X=89.4355 $Y=126.585
Rd43	A#236	A#232	0.064370	$MET3	$W=1.46e-06
+ $X=88.37 $Y=126.585
Rd44	A#232	A#223	0.107959	$MET3	$W=1.46e-06
+ $X=86.0355 $Y=126.585
Rd45	A#223	A#219	0.064370	$MET3	$W=1.46e-06
+ $X=84.97 $Y=126.585
Rd46	A#219	A#215	0.107959	$MET3	$W=1.46e-06
+ $X=82.6355 $Y=126.585
Rd47	A#215	A#211	0.064370	$MET3	$W=1.46e-06
+ $X=81.57 $Y=126.585
Rd48	A#211	A#207	0.107959	$MET3	$W=1.46e-06
+ $X=79.2355 $Y=126.585
Rd49	A#207	A#203	0.064370	$MET3	$W=1.46e-06
+ $X=78.17 $Y=126.585
Rd50	A#203	A#199	0.107959	$MET3	$W=1.46e-06
+ $X=75.8355 $Y=126.585
Rd51	A#199	A#195	0.064370	$MET3	$W=1.46e-06
+ $X=74.77 $Y=126.585
Rd52	A#195	A#191	0.043589	$MET3	$W=1.46e-06
+ $X=73.0705 $Y=126.585
Rd53	A#191	A#181	0.064370	$MET3	$W=1.46e-06
+ $X=72.64 $Y=126.585
Rd54	A#181	A#187	0.064370	$MET3	$W=1.46e-06
+ $X=70.7355 $Y=126.585
Rd55	A#187	A#383	0.095795	$MET3	$W=1.46e-06
+ $X=69.5455 $Y=126.585
Rd56	VREF#112	VREF#108	5.096826	$MET3	$W=4.6e-07
+ $X=123.9155 $Y=112.235
Rd57	VREF#108	VREF#106	0.497087	$MET3	$W=4.6e-07
+ $X=120.5155 $Y=112.235
Rd58	VREF#106	VREF#102	0.596826	$MET3	$W=4.6e-07
+ $X=117.1155 $Y=112.235
Rd59	VREF#102	VREF#100	0.497087	$MET3	$W=4.6e-07
+ $X=113.7155 $Y=112.235
Rd60	VREF#100	VREF#96	0.596826	$MET3	$W=4.6e-07
+ $X=110.3155 $Y=112.235
Rd61	VREF#96	VREF#94	0.497087	$MET3	$W=4.6e-07
+ $X=106.9155 $Y=112.235
Rd62	VREF#94	VREF#90	0.596826	$MET3	$W=4.6e-07
+ $X=103.5155 $Y=112.235
Rd63	VREF#90	VREF#88	0.497087	$MET3	$W=4.6e-07
+ $X=100.1155 $Y=112.235
Rd64	VREF#88	VREF#84	0.596826	$MET3	$W=4.6e-07
+ $X=96.7155 $Y=112.235
Rd65	VREF#84	VREF#82	0.497087	$MET3	$W=4.6e-07
+ $X=93.3155 $Y=112.235
Rd66	VREF#82	VREF#78	0.596826	$MET3	$W=4.6e-07
+ $X=89.9155 $Y=112.235
Rd67	VREF#78	VREF#76	0.497087	$MET3	$W=4.6e-07
+ $X=86.5155 $Y=112.235
Rd68	VREF#76	VREF#72	0.596826	$MET3	$W=4.6e-07
+ $X=83.1155 $Y=112.235
Rd69	VREF#72	VREF#70	0.497087	$MET3	$W=4.6e-07
+ $X=79.7155 $Y=112.235
Rd70	VREF#70	VREF#66	0.596826	$MET3	$W=4.6e-07
+ $X=76.3155 $Y=112.235
Rd71	VREF#66	VREF	1.859652	$MET3	$W=4.6e-07
+ $X=68.556 $Y=112.235
Rd72	A#384	A#341	0.470795	$MET3	$W=1.46e-06
+ $X=130.9955 $Y=98.685
Rd73	A#341	A#334	0.064370	$MET3	$W=1.46e-06
+ $X=130.44 $Y=98.685
Rd74	A#334	A#331	0.064370	$MET3	$W=1.46e-06
+ $X=128.5355 $Y=98.685
Rd75	A#331	A#326	0.107959	$MET3	$W=1.46e-06
+ $X=126.8355 $Y=98.685
Rd76	A#326	A#323	0.064370	$MET3	$W=1.46e-06
+ $X=125.77 $Y=98.685
Rd77	A#323	A#318	0.107959	$MET3	$W=1.46e-06
+ $X=123.4355 $Y=98.685
Rd78	A#318	A#315	0.064370	$MET3	$W=1.46e-06
+ $X=122.37 $Y=98.685
Rd79	A#315	A#310	0.107959	$MET3	$W=1.46e-06
+ $X=120.0355 $Y=98.685
Rd80	A#310	A#307	0.064370	$MET3	$W=1.46e-06
+ $X=118.97 $Y=98.685
Rd81	A#307	A#302	0.107959	$MET3	$W=1.46e-06
+ $X=116.6355 $Y=98.685
Rd82	A#302	A#299	0.064370	$MET3	$W=1.46e-06
+ $X=115.57 $Y=98.685
Rd83	A#299	A#294	0.107959	$MET3	$W=1.46e-06
+ $X=113.2355 $Y=98.685
Rd84	A#294	A#291	0.064370	$MET3	$W=1.46e-06
+ $X=112.17 $Y=98.685
Rd85	A#291	A#286	0.107959	$MET3	$W=1.46e-06
+ $X=109.8355 $Y=98.685
Rd86	A#286	A#283	0.064370	$MET3	$W=1.46e-06
+ $X=108.77 $Y=98.685
Rd87	A#283	A#278	0.107959	$MET3	$W=1.46e-06
+ $X=106.4355 $Y=98.685
Rd88	A#278	A#275	0.064370	$MET3	$W=1.46e-06
+ $X=105.37 $Y=98.685
Rd89	A#275	A#270	0.107959	$MET3	$W=1.46e-06
+ $X=103.0355 $Y=98.685
Rd90	A#270	A#267	0.064370	$MET3	$W=1.46e-06
+ $X=101.97 $Y=98.685
Rd91	A#267	A#262	0.107959	$MET3	$W=1.46e-06
+ $X=99.6355 $Y=98.685
Rd92	A#262	A#259	0.064370	$MET3	$W=1.46e-06
+ $X=98.57 $Y=98.685
Rd93	A#259	A#254	0.107959	$MET3	$W=1.46e-06
+ $X=96.2355 $Y=98.685
Rd94	A#254	A#251	0.064370	$MET3	$W=1.46e-06
+ $X=95.17 $Y=98.685
Rd95	A#251	A#246	0.107959	$MET3	$W=1.46e-06
+ $X=92.8355 $Y=98.685
Rd96	A#246	A#243	0.064370	$MET3	$W=1.46e-06
+ $X=91.77 $Y=98.685
Rd97	A#243	A#238	0.107959	$MET3	$W=1.46e-06
+ $X=89.4355 $Y=98.685
Rd98	A#238	A#235	0.064370	$MET3	$W=1.46e-06
+ $X=88.37 $Y=98.685
Rd99	A#235	A#225	0.107959	$MET3	$W=1.46e-06
+ $X=86.0355 $Y=98.685
Rd100	A#225	A#222	0.064370	$MET3	$W=1.46e-06
+ $X=84.97 $Y=98.685
Rd101	A#222	A#217	0.107959	$MET3	$W=1.46e-06
+ $X=82.6355 $Y=98.685
Rd102	A#217	A#214	0.064370	$MET3	$W=1.46e-06
+ $X=81.57 $Y=98.685
Rd103	A#214	A#209	0.107959	$MET3	$W=1.46e-06
+ $X=79.2355 $Y=98.685
Rd104	A#209	A#206	0.064370	$MET3	$W=1.46e-06
+ $X=78.17 $Y=98.685
Rd105	A#206	A#201	0.107959	$MET3	$W=1.46e-06
+ $X=75.8355 $Y=98.685
Rd106	A#201	A#198	0.064370	$MET3	$W=1.46e-06
+ $X=74.77 $Y=98.685
Rd107	A#198	A#194	0.043589	$MET3	$W=1.46e-06
+ $X=73.0705 $Y=98.685
Rd108	A#194	A#183	0.064370	$MET3	$W=1.46e-06
+ $X=72.64 $Y=98.685
Rd109	A#183	A#190	0.064370	$MET3	$W=1.46e-06
+ $X=70.7355 $Y=98.685
Rd110	A#190	A#423	0.470795	$MET3	$W=1.46e-06
+ $X=69.5455 $Y=98.685
Rd111	net12#212	net12#190	0.671575	$MET3	$W=1.46e-06
+ $X=129.8755 $Y=96.905
Rd112	net12#190	net12#186	0.344658	$MET3	$W=1.46e-06
+ $X=120.2405 $Y=96.905
Rd113	net12#186	net12#182	0.344658	$MET3	$W=1.46e-06
+ $X=113.4405 $Y=96.905
Rd114	net12#182	net12#178	0.344658	$MET3	$W=1.46e-06
+ $X=106.6405 $Y=96.905
Rd115	net12#178	net12#174	0.344658	$MET3	$W=1.46e-06
+ $X=99.8405 $Y=96.905
Rd116	net12#174	net12#170	0.344658	$MET3	$W=1.46e-06
+ $X=93.0405 $Y=96.905
Rd117	net12#170	net12#166	0.344658	$MET3	$W=1.46e-06
+ $X=86.2405 $Y=96.905
Rd118	net12#166	net12#162	0.344658	$MET3	$W=1.46e-06
+ $X=79.4405 $Y=96.905
Rd119	net12#162	net12#221	0.512425	$MET3	$W=1.46e-06
+ $X=71.3755 $Y=96.905
Rd120	net7#843	net7#745	0.383685	$MET3	$W=1.46e-06
+ $X=130.4355 $Y=95.125
Rd121	net7#745	net7#741	0.344658	$MET3	$W=1.46e-06
+ $X=123.6405 $Y=95.125
Rd122	net7#741	net7#737	0.344658	$MET3	$W=1.46e-06
+ $X=116.8405 $Y=95.125
Rd123	net7#737	net7#733	0.344658	$MET3	$W=1.46e-06
+ $X=110.0405 $Y=95.125
Rd124	net7#733	net7#729	0.344658	$MET3	$W=1.46e-06
+ $X=103.2405 $Y=95.125
Rd125	net7#729	net7#725	0.344658	$MET3	$W=1.46e-06
+ $X=96.4405 $Y=95.125
Rd126	net7#725	net7#721	0.344658	$MET3	$W=1.46e-06
+ $X=89.6405 $Y=95.125
Rd127	net7#721	net7#717	0.344658	$MET3	$W=1.46e-06
+ $X=82.8405 $Y=95.125
Rd128	net7#717	net7#852	0.800315	$MET3	$W=1.46e-06
+ $X=71.9355 $Y=95.125
Rd129	net12#222	net12#191	0.499247	$MET3	$W=1.46e-06
+ $X=131.5755 $Y=130.145
Rd130	net12#191	net12#187	0.344658	$MET3	$W=1.46e-06
+ $X=123.6405 $Y=130.145
Rd131	net12#187	net12#183	0.344658	$MET3	$W=1.46e-06
+ $X=116.8405 $Y=130.145
Rd132	net12#183	net12#179	0.344658	$MET3	$W=1.46e-06
+ $X=110.0405 $Y=130.145
Rd133	net12#179	net12#175	0.344658	$MET3	$W=1.46e-06
+ $X=103.2405 $Y=130.145
Rd134	net12#175	net12#171	0.344658	$MET3	$W=1.46e-06
+ $X=96.4405 $Y=130.145
Rd135	net12#171	net12#167	0.344658	$MET3	$W=1.46e-06
+ $X=89.6405 $Y=130.145
Rd136	net12#167	net12#163	0.344658	$MET3	$W=1.46e-06
+ $X=82.8405 $Y=130.145
Rd137	net12#163	net12#231	0.684753	$MET3	$W=1.46e-06
+ $X=73.0755 $Y=130.145
Rd138	net12#231	net12#211	1.354630	$MET3	$W=1.46e-06
+ $X=59.8 $Y=138.087
Rd139	net12#211	net12#206	0.576143	$MET3	$W=1.96e-06
+ $X=51.27 $Y=152.3795
Rd140	net12#206	net12#197	1.013061	$MET3	$W=1.96e-06
+ $X=51.27 $Y=168.7195
Rd141	net14#139	net14#131	11.509287	$MET3	$W=4.6e-07
+ $X=140.695 $Y=94.4545
Rd142	net14#131	net14#126	0.497087	$MET3	$W=4.6e-07
+ $X=124.2255 $Y=113.015
Rd143	net14#126	net14#125	0.596826	$MET3	$W=4.6e-07
+ $X=120.8255 $Y=113.015
Rd144	net14#125	net14#120	0.497087	$MET3	$W=4.6e-07
+ $X=117.4255 $Y=113.015
Rd145	net14#120	net14#119	0.596826	$MET3	$W=4.6e-07
+ $X=114.0255 $Y=113.015
Rd146	net14#119	net14#114	0.497087	$MET3	$W=4.6e-07
+ $X=110.6255 $Y=113.015
Rd147	net14#114	net14#113	0.596826	$MET3	$W=4.6e-07
+ $X=107.2255 $Y=113.015
Rd148	net14#113	net14#108	0.497087	$MET3	$W=4.6e-07
+ $X=103.8255 $Y=113.015
Rd149	net14#108	net14#107	0.596826	$MET3	$W=4.6e-07
+ $X=100.4255 $Y=113.015
Rd150	net14#107	net14#102	0.497087	$MET3	$W=4.6e-07
+ $X=97.0255 $Y=113.015
Rd151	net14#102	net14#101	0.596826	$MET3	$W=4.6e-07
+ $X=93.6255 $Y=113.015
Rd152	net14#101	net14#96	0.497087	$MET3	$W=4.6e-07
+ $X=90.2255 $Y=113.015
Rd153	net14#96	net14#95	0.596826	$MET3	$W=4.6e-07
+ $X=86.8255 $Y=113.015
Rd154	net14#95	net14#90	0.497087	$MET3	$W=4.6e-07
+ $X=83.4255 $Y=113.015
Rd155	net14#90	net14#89	0.596826	$MET3	$W=4.6e-07
+ $X=80.0255 $Y=113.015
Rd156	net14#89	net14#84	4.997087	$MET3	$W=4.6e-07
+ $X=76.6255 $Y=113.015
Rd157	net7#746	net7#854	1.589204	$MET3	$W=1.96e-06
+ $X=172.57 $Y=159.1805
Rd158	net7#854	net7#855	1.948799	$MET3	$W=1.46e-06
+ $X=137.4075 $Y=128.365
Rd159	net7#855	net7#742	0.556014	$MET3	$W=1.46e-06
+ $X=128.7355 $Y=128.365
Rd160	net7#742	net7#738	0.344658	$MET3	$W=1.46e-06
+ $X=120.2405 $Y=128.365
Rd161	net7#738	net7#734	0.344658	$MET3	$W=1.46e-06
+ $X=113.4405 $Y=128.365
Rd162	net7#734	net7#730	0.344658	$MET3	$W=1.46e-06
+ $X=106.6405 $Y=128.365
Rd163	net7#730	net7#726	0.344658	$MET3	$W=1.46e-06
+ $X=99.8405 $Y=128.365
Rd164	net7#726	net7#722	0.344658	$MET3	$W=1.46e-06
+ $X=93.0405 $Y=128.365
Rd165	net7#722	net7#718	0.344658	$MET3	$W=1.46e-06
+ $X=86.2405 $Y=128.365
Rd166	net7#718	net7#714	0.344658	$MET3	$W=1.46e-06
+ $X=79.4405 $Y=128.365
Rd167	net7#714	net7#864	0.627986	$MET3	$W=1.46e-06
+ $X=70.2355 $Y=128.365
Rd168	net30#404	net30#323	3.472671	$MET3	$W=9.6e-07
+ $X=180.125 $Y=30.252
Rd169	net6#18	net6#20	1.834796	$MET3	$W=1.96e-06
+ $X=184.405 $Y=156.9955
Rd170	net6#20	net6#22	0.709796	$MET3	$W=1.96e-06
+ $X=184.405 $Y=138.1955
Rd171	net6#22	net6#25	0.709796	$MET3	$W=1.96e-06
+ $X=184.405 $Y=119.3955
Rd172	net6#25	net6#27	0.709796	$MET3	$W=1.96e-06
+ $X=184.405 $Y=100.5955
Rd173	net6#27	net6#29	0.709796	$MET3	$W=1.96e-06
+ $X=184.405 $Y=81.7955
Rd174	net6#29	net6#31	1.834796	$MET3	$W=1.96e-06
+ $X=184.405 $Y=62.9955
Rd175	net7#752	net7#866	1.834796	$MET3	$W=1.96e-06
+ $X=186.685 $Y=157.7755
Rd176	net7#866	net7#767	0.709796	$MET3	$W=1.96e-06
+ $X=186.685 $Y=138.9755
Rd177	net7#767	net7#782	0.709796	$MET3	$W=1.96e-06
+ $X=186.685 $Y=120.1755
Rd178	net7#782	net7#797	0.709796	$MET3	$W=1.96e-06
+ $X=186.685 $Y=101.3755
Rd179	net7#797	net7#812	0.709796	$MET3	$W=1.96e-06
+ $X=186.685 $Y=82.5755
Rd180	net7#812	net7#822	1.834796	$MET3	$W=1.96e-06
+ $X=186.685 $Y=63.7755
Rd181	net1#26	net1#28	1.834796	$MET3	$W=1.96e-06
+ $X=188.965 $Y=158.5555
Rd182	net1#28	net1#31	0.709796	$MET3	$W=1.96e-06
+ $X=188.965 $Y=139.7555
Rd183	net1#31	net1#34	0.709796	$MET3	$W=1.96e-06
+ $X=188.965 $Y=120.9555
Rd184	net1#34	net1#36	0.709796	$MET3	$W=1.96e-06
+ $X=188.965 $Y=102.1555
Rd185	net1#36	net1#38	0.709796	$MET3	$W=1.96e-06
+ $X=188.965 $Y=83.3555
Rd186	net1#38	net1#40	1.834796	$MET3	$W=1.96e-06
+ $X=188.965 $Y=64.5555
Rd187	net2#35	net2#39	1.834796	$MET3	$W=1.96e-06
+ $X=191.245 $Y=159.3355
Rd188	net2#39	net2#41	0.709796	$MET3	$W=1.96e-06
+ $X=191.245 $Y=140.5355
Rd189	net2#41	net2#43	0.709796	$MET3	$W=1.96e-06
+ $X=191.245 $Y=121.7355
Rd190	net2#43	net2#47	0.709796	$MET3	$W=1.96e-06
+ $X=191.245 $Y=102.9355
Rd191	net2#47	net2#49	0.709796	$MET3	$W=1.96e-06
+ $X=191.245 $Y=84.1355
Rd192	net2#49	net2#51	1.834796	$MET3	$W=1.96e-06
+ $X=191.245 $Y=65.3355
Rd193	net3#55	net3#59	1.834796	$MET3	$W=1.96e-06
+ $X=193.525 $Y=160.1155
Rd194	net3#59	net3#63	0.709796	$MET3	$W=1.96e-06
+ $X=193.525 $Y=141.3155
Rd195	net3#63	net3#67	0.709796	$MET3	$W=1.96e-06
+ $X=193.525 $Y=122.5155
Rd196	net3#67	net3#71	0.709796	$MET3	$W=1.96e-06
+ $X=193.525 $Y=103.7155
Rd197	net3#71	net3#73	0.709796	$MET3	$W=1.96e-06
+ $X=193.525 $Y=84.9155
Rd198	net3#73	net3#75	1.834796	$MET3	$W=1.96e-06
+ $X=193.525 $Y=66.1155
Rd199	net4#98	net4#102	1.834796	$MET3	$W=1.96e-06
+ $X=195.805 $Y=160.8955
Rd200	net4#102	net4#107	0.709796	$MET3	$W=1.96e-06
+ $X=195.805 $Y=142.0955
Rd201	net4#107	net4#111	0.709796	$MET3	$W=1.96e-06
+ $X=195.805 $Y=123.2955
Rd202	net4#111	net4#115	0.709796	$MET3	$W=1.96e-06
+ $X=195.805 $Y=104.4955
Rd203	net4#115	net4#121	0.709796	$MET3	$W=1.96e-06
+ $X=195.805 $Y=85.6955
Rd204	net4#121	net4#123	0.709796	$MET3	$W=1.96e-06
+ $X=195.805 $Y=66.8955
Rd205	net4#123	net4#131	0.318653	$MET3	$W=1.96e-06
+ $X=195.805 $Y=53.6655
Rd208	VDDA#1556	VDDA#1346	0.085704	$MET3	$W=1.96e-06
+ $X=202.645 $Y=178.23
Rd209	VDDA#1346	VDDA#1380	0.182735	$MET3	$W=1.96e-06
+ $X=202.645 $Y=175.0555
Rd210	VDDA#1380	VDDA#1401	0.709796	$MET3	$W=1.96e-06
+ $X=202.645 $Y=163.2355
Rd211	VDDA#1401	VDDA#1422	0.709796	$MET3	$W=1.96e-06
+ $X=202.645 $Y=144.4355
Rd212	VDDA#1422	VDDA#1443	0.709796	$MET3	$W=1.96e-06
+ $X=202.645 $Y=125.6355
Rd213	VDDA#1443	VDDA#1464	0.709796	$MET3	$W=1.96e-06
+ $X=202.645 $Y=106.8355
Rd214	VDDA#1464	VDDA#1490	0.709796	$MET3	$W=1.96e-06
+ $X=202.645 $Y=88.0355
Rd215	VDDA#1490	VDDA#1529	0.709796	$MET3	$W=1.96e-06
+ $X=202.645 $Y=69.2355
Rd216	VDDA#1529	VDDA#1546	1.543326	$MET3	$W=1.96e-06
+ $X=202.645 $Y=54.2955
Rd217	net5#170	net5#220	1.199652	$MET3	$W=1.96e-06
+ $X=198.085 $Y=47.0495
Rd218	net5#220	net5#218	0.709796	$MET3	$W=1.96e-06
+ $X=198.085 $Y=67.6745
Rd219	net5#218	net5#213	0.709796	$MET3	$W=1.96e-06
+ $X=198.085 $Y=86.4745
Rd220	net5#213	net5#206	0.709796	$MET3	$W=1.96e-06
+ $X=198.085 $Y=105.2745
Rd221	net5#206	net5#199	0.709796	$MET3	$W=1.96e-06
+ $X=198.085 $Y=124.0745
Rd222	net5#199	net5#192	0.709796	$MET3	$W=1.96e-06
+ $X=198.085 $Y=142.8745
Rd223	net5#192	net5#185	1.834796	$MET3	$W=1.96e-06
+ $X=198.085 $Y=161.6745
Rd224	net19#54	net19#79	1.890024	$MET3	$W=1.96e-06
+ $X=208.763 $Y=46.18
Rd225	net19#79	net19#77	0.709796	$MET3	$W=1.96e-06
+ $X=200.365 $Y=68.4545
Rd226	net19#77	net19#74	0.709796	$MET3	$W=1.96e-06
+ $X=200.365 $Y=87.2545
Rd227	net19#74	net19#70	0.709796	$MET3	$W=1.96e-06
+ $X=200.365 $Y=106.0545
Rd228	net19#70	net19#66	0.709796	$MET3	$W=1.96e-06
+ $X=200.365 $Y=124.8545
Rd229	net19#66	net19#62	0.709796	$MET3	$W=1.96e-06
+ $X=200.365 $Y=143.6545
Rd230	net19#62	net19#58	1.834796	$MET3	$W=1.96e-06
+ $X=200.365 $Y=162.4545
Rd231	VOUT#143	VOUT	0.907180	$MET3	$W=1.96e-06
+ $X=244.2275 $Y=38.48
Rd232	VOUT	VOUT#109	2.768577	$MET3	$W=1.96e-06
+ $X=215.095 $Y=22.62
Rd233	VOUT#109	VOUT#146	3.594612	$MET3	$W=1.96e-06
+ $X=144.8725 $Y=41.01
Rd234	VOUT#146	VOUT#105	1.610734	$MET3	$W=3e-07
+ $X=103.01 $Y=55.935
Rd235	VOUT#146	VOUT#107	1.602855	$MET3	$W=3e-07
+ $X=104.79 $Y=56.255
Rd236	net5#173	net5#153	1.825413	$MET3	$W=1.96e-06
+ $X=298.43 $Y=24.217
Rd237	D5	D5#9	0.500760	$MET3	$W=1.46e-06
+ $X=307.715 $Y=6.345
Rd238	D4	D4#9	0.500507	$MET3	$W=1.46e-06
+ $X=316.955 $Y=6.345
Rd239	D3	D3#9	0.500760	$MET3	$W=1.46e-06
+ $X=326.225 $Y=6.345
Rd240	net4#80	net4#133	2.554562	$MET3	$W=1.96e-06
+ $X=319.425 $Y=17.2625
Rd241	net4#133	net4#92	0.140625	$MET3	$W=3.9e-06
+ $X=303.11 $Y=40.78
Rd242	D2	D2#9	0.500507	$MET3	$W=1.46e-06
+ $X=335.49 $Y=6.345
Rd243	D1#9	D1	0.500507	$MET3	$W=1.46e-06
+ $X=344.75 $Y=6.345
Rd244	net3#83	net3#49	0.140625	$MET3	$W=3.9e-06
+ $X=344.575 $Y=40.78
Rd245	net3#83	net3#44	1.897916	$MET3	$W=1.96e-06
+ $X=337.4075 $Y=40.78
Rd246	D0	D0#9	0.501267	$MET3	$W=1.46e-06
+ $X=354.005 $Y=6.345
Rd247	net1#16	net1#17	2.033666	$MET3	$W=1.96e-06
+ $X=362.685 $Y=40.78
Rd248	net6#40	net6#12	0.140625	$MET3	$W=3.9e-06
+ $X=374.005 $Y=40.78
Rd249	net6#17	net6#19	1.834796	$MET3	$W=1.96e-06
+ $X=377.865 $Y=156.9955
Rd250	net6#19	net6#21	0.709796	$MET3	$W=1.96e-06
+ $X=377.865 $Y=138.1955
Rd251	net6#21	net6#23	0.709796	$MET3	$W=1.96e-06
+ $X=377.865 $Y=119.3955
Rd252	net6#23	net6#26	0.709796	$MET3	$W=1.96e-06
+ $X=377.865 $Y=100.5955
Rd253	net6#26	net6#28	0.709796	$MET3	$W=1.96e-06
+ $X=377.865 $Y=81.7955
Rd254	net6#28	net6#30	0.709796	$MET3	$W=1.96e-06
+ $X=377.865 $Y=62.9955
Rd255	net6#30	net6#49	0.120628	$MET3	$W=1.96e-06
+ $X=377.865 $Y=52.388
Rd258	VDDA#1568	VDDA#1315	0.086074	$MET3	$W=1.96e-06
+ $X=375.585 $Y=178.23
Rd259	VDDA#1315	VDDA#1347	0.182735	$MET3	$W=1.96e-06
+ $X=375.585 $Y=175.0555
Rd260	VDDA#1347	VDDA#1381	0.709796	$MET3	$W=1.96e-06
+ $X=375.585 $Y=163.2355
Rd261	VDDA#1381	VDDA#1402	0.709796	$MET3	$W=1.96e-06
+ $X=375.585 $Y=144.4355
Rd262	VDDA#1402	VDDA#1423	0.709796	$MET3	$W=1.96e-06
+ $X=375.585 $Y=125.6355
Rd263	VDDA#1423	VDDA#1444	0.709796	$MET3	$W=1.96e-06
+ $X=375.585 $Y=106.8355
Rd264	VDDA#1444	VDDA#1465	0.709796	$MET3	$W=1.96e-06
+ $X=375.585 $Y=88.0355
Rd265	VDDA#1465	VDDA#1491	0.709796	$MET3	$W=1.96e-06
+ $X=375.585 $Y=69.2355
Rd266	VDDA#1491	VDDA#1530	1.543326	$MET3	$W=1.96e-06
+ $X=375.585 $Y=54.2955
Rd267	net7#751	net7#823	1.834796	$MET3	$W=1.96e-06
+ $X=380.145 $Y=157.7755
Rd268	net7#823	net7#753	0.709796	$MET3	$W=1.96e-06
+ $X=380.145 $Y=138.9755
Rd269	net7#753	net7#768	0.709796	$MET3	$W=1.96e-06
+ $X=380.145 $Y=120.1755
Rd270	net7#768	net7#783	0.709796	$MET3	$W=1.96e-06
+ $X=380.145 $Y=101.3755
Rd271	net7#783	net7#798	0.709796	$MET3	$W=1.96e-06
+ $X=380.145 $Y=82.5755
Rd272	net7#798	net7#813	1.834796	$MET3	$W=1.96e-06
+ $X=380.145 $Y=63.7755
Rd273	net1#25	net1#27	1.834796	$MET3	$W=1.96e-06
+ $X=382.425 $Y=158.5555
Rd274	net1#27	net1#29	0.709796	$MET3	$W=1.96e-06
+ $X=382.425 $Y=139.7555
Rd275	net1#29	net1#32	0.709796	$MET3	$W=1.96e-06
+ $X=382.425 $Y=120.9555
Rd276	net1#32	net1#35	0.709796	$MET3	$W=1.96e-06
+ $X=382.425 $Y=102.1555
Rd277	net1#35	net1#37	0.709796	$MET3	$W=1.96e-06
+ $X=382.425 $Y=83.3555
Rd278	net1#37	net1#39	0.709796	$MET3	$W=1.96e-06
+ $X=382.425 $Y=64.5555
Rd279	net1#39	net1#21	0.635204	$MET3	$W=1.96e-06
+ $X=382.425 $Y=50.858
Rd280	net2#34	net2#36	1.834796	$MET3	$W=1.96e-06
+ $X=384.705 $Y=159.3355
Rd281	net2#36	net2#40	0.709796	$MET3	$W=1.96e-06
+ $X=384.705 $Y=140.5355
Rd282	net2#40	net2#42	0.709796	$MET3	$W=1.96e-06
+ $X=384.705 $Y=121.7355
Rd283	net2#42	net2#44	0.709796	$MET3	$W=1.96e-06
+ $X=384.705 $Y=102.9355
Rd284	net2#44	net2#48	0.709796	$MET3	$W=1.96e-06
+ $X=384.705 $Y=84.1355
Rd285	net2#48	net2#50	0.709796	$MET3	$W=1.96e-06
+ $X=384.705 $Y=65.3355
Rd286	net2#50	net2#66	1.508786	$MET3	$W=1.96e-06
+ $X=376.523 $Y=43.445
Rd287	net2#66	net2#26	1.909542	$MET3	$W=1.96e-06
+ $X=352.225 $Y=40.79
Rd288	net3#54	net3#56	1.834796	$MET3	$W=1.96e-06
+ $X=386.985 $Y=160.1155
Rd289	net3#56	net3#60	0.709796	$MET3	$W=1.96e-06
+ $X=386.985 $Y=141.3155
Rd290	net3#60	net3#64	0.709796	$MET3	$W=1.96e-06
+ $X=386.985 $Y=122.5155
Rd291	net3#64	net3#68	0.709796	$MET3	$W=1.96e-06
+ $X=386.985 $Y=103.7155
Rd292	net3#68	net3#72	0.709796	$MET3	$W=1.96e-06
+ $X=386.985 $Y=84.9155
Rd293	net3#72	net3#74	0.709796	$MET3	$W=1.96e-06
+ $X=386.985 $Y=66.1155
Rd294	net3#74	net3#93	0.346781	$MET3	$W=1.96e-06
+ $X=386.985 $Y=52.513
Rd295	net4#94	net4#99	1.834796	$MET3	$W=1.96e-06
+ $X=389.265 $Y=160.8955
Rd296	net4#99	net4#103	0.709796	$MET3	$W=1.96e-06
+ $X=389.265 $Y=142.0955
Rd297	net4#103	net4#108	0.709796	$MET3	$W=1.96e-06
+ $X=389.265 $Y=123.2955
Rd298	net4#108	net4#112	0.709796	$MET3	$W=1.96e-06
+ $X=389.265 $Y=104.4955
Rd299	net4#112	net4#116	0.709796	$MET3	$W=1.96e-06
+ $X=389.265 $Y=85.6955
Rd300	net4#116	net4#122	1.834796	$MET3	$W=1.96e-06
+ $X=389.265 $Y=66.8955
Rd301	net5#175	net5#186	1.834796	$MET3	$W=1.96e-06
+ $X=391.545 $Y=161.6755
Rd302	net5#186	net5#193	0.709796	$MET3	$W=1.96e-06
+ $X=391.545 $Y=142.8755
Rd303	net5#193	net5#200	0.709796	$MET3	$W=1.96e-06
+ $X=391.545 $Y=124.0755
Rd304	net5#200	net5#207	0.709796	$MET3	$W=1.96e-06
+ $X=391.545 $Y=105.2755
Rd305	net5#207	net5#214	0.709796	$MET3	$W=1.96e-06
+ $X=391.545 $Y=86.4755
Rd306	net5#214	net5#219	1.834796	$MET3	$W=1.96e-06
+ $X=391.545 $Y=67.6755
Rd307	net19#56	net19#59	1.834796	$MET3	$W=1.96e-06
+ $X=393.825 $Y=162.4555
Rd308	net19#59	net19#63	0.709796	$MET3	$W=1.96e-06
+ $X=393.825 $Y=143.6555
Rd309	net19#63	net19#67	0.709796	$MET3	$W=1.96e-06
+ $X=393.825 $Y=124.8555
Rd310	net19#67	net19#71	0.709796	$MET3	$W=1.96e-06
+ $X=393.825 $Y=106.0555
Rd311	net19#71	net19#75	0.709796	$MET3	$W=1.96e-06
+ $X=393.825 $Y=87.2555
Rd312	net19#75	net19#78	1.834796	$MET3	$W=1.96e-06
+ $X=393.825 $Y=68.4555
Rd578	VDDA#1547	VDDA#1568	0.056250	$MET3	$W=5.408e-06
+ $X=375.6 $Y=179.775
Rd610	net2#31	net2#66	0.140625	$MET3	$W=2.1632e-06
+ $X=356.88 $Y=40.78
Rd472	net7#838	net7#854	0.375000	$MET3	$W=8.112e-07
+ $X=172.57 $Y=143.1
Rd491	net7#837	net7#866	1.125000	$MET3	$W=2.704e-07
+ $X=186.685 $Y=148.375
Rd525	VDDA#1549	VDDA#1556	0.056250	$MET3	$W=5.408e-06
+ $X=202.645 $Y=179.775
Re1	net9#100	net9#77	1.007479	$MET2	$W=1.46e-06
+ $X=25.2255 $Y=56.365
Re2	net9#77	net9#67	0.257479	$MET2	$W=1.46e-06
+ $X=20.4005 $Y=56.365
Re3	net9#67	net9#179	0.026863	$MET2	$W=1.46e-06
+ $X=17.075 $Y=56.365
Re4	net9#179	net9#54	0.230616	$MET2	$W=1.46e-06
+ $X=14.2805 $Y=56.365
Re5	net9#54	net9#51	1.007479	$MET2	$W=1.46e-06
+ $X=9.9855 $Y=56.365
Re6	net8#35	net8#46	2.834534	$MET2	$W=1.46e-06
+ $X=24.3155 $Y=177.04
Re7	net10#28	net10#3	2.300315	$MET2	$W=1.46e-06
+ $X=33.6155 $Y=175.26
Re8	VDDA#1270	VDDA#162	1.036945	$MET2	$W=1.46e-06
+ $X=32.8205 $Y=173.48
Re9	VDDA#162	VDDA#156	0.569699	$MET2	$W=1.46e-06
+ $X=21.0605 $Y=173.48
Re10	VDDA#156	VDDA#1204	0.502726	$MET2	$W=1.46e-06
+ $X=14.5705 $Y=173.48
Re11	net8#25	net8#48	4.058174	$MET2	$W=4.6e-07
+ $X=26.3305 $Y=160.14
Re12	net8#48	net8#49	3.079739	$MET2	$W=4.6e-07
+ $X=15.9305 $Y=160.14
Re13	VDDA#1271	VDDA#165	1.036945	$MET2	$W=1.46e-06
+ $X=32.8205 $Y=146.66
Re14	VDDA#165	VDDA#159	0.569699	$MET2	$W=1.46e-06
+ $X=21.0605 $Y=146.66
Re15	VDDA#159	VDDA#1205	0.502726	$MET2	$W=1.46e-06
+ $X=14.5705 $Y=146.66
Re16	net8#50	net8#22	1.029411	$MET2	$W=1.46e-06
+ $X=35.8755 $Y=144.88
Re17	net8#22	net8#52	0.764836	$MET2	$W=1.46e-06
+ $X=18.6955 $Y=144.88
Re18	net8#53	net8#44	0.024332	$MET2	$W=1.475e-06
+ $X=52.465 $Y=56.3575
Re19	net8#44	net8#41	0.256419	$MET2	$W=1.46e-06
+ $X=48.6425 $Y=56.365
Re20	net8#41	net8#38	0.257479	$MET2	$W=1.46e-06
+ $X=44.3605 $Y=56.365
Re21	net8#38	net8#32	1.007479	$MET2	$W=1.46e-06
+ $X=39.2805 $Y=56.365
Re22	net13#40	net13#36	0.371521	$MET2	$W=1.46e-06
+ $X=55.9555 $Y=45.09
Re23	net13#36	net13#24	0.492658	$MET2	$W=1.46e-06
+ $X=47.8205 $Y=45.09
Re24	net13#24	net13#12	0.492658	$MET2	$W=1.46e-06
+ $X=38.1005 $Y=45.09
Re25	net13#12	net13#44	0.091441	$MET2	$W=1.46e-06
+ $X=32.5605 $Y=45.09
Re26	net13#44	net13#6	1.893524	$MET2	$W=1.46e-06
+ $X=27.18 $Y=45.09
Re27	net13#44	net13#15	0.739914	$MET2	$W=1.46e-06
+ $X=31.36 $Y=51.6175
Re28	net13#15	net13#18	0.257479	$MET2	$W=1.46e-06
+ $X=36.7395 $Y=58.145
Re29	net13#18	net13#27	0.257479	$MET2	$W=1.46e-06
+ $X=41.8195 $Y=58.145
Re30	net13#27	net13#33	0.257479	$MET2	$W=1.46e-06
+ $X=46.8995 $Y=58.145
Re31	net13#33	net13#39	1.007479	$MET2	$W=1.46e-06
+ $X=51.9795 $Y=58.145
Re32	net15#40	net15#24	1.026301	$MET2	$W=1.46e-06
+ $X=55.4755 $Y=43.31
Re33	net15#24	net15#18	0.492658	$MET2	$W=1.46e-06
+ $X=44.5805 $Y=43.31
Re34	net15#18	net15#12	0.492658	$MET2	$W=1.46e-06
+ $X=34.8605 $Y=43.31
Re35	net15#12	net15#6	1.992658	$MET2	$W=1.46e-06
+ $X=25.1405 $Y=43.31
Re36	GNDA#400	GNDA#119	0.466740	$MET2	$W=1.46e-06
+ $X=56.4355 $Y=39.75
Re37	GNDA#119	GNDA#111	0.128740	$MET2	$W=1.46e-06
+ $X=54.6505 $Y=39.75
Re38	GNDA#111	GNDA#105	0.164219	$MET2	$W=1.46e-06
+ $X=51.7605 $Y=39.75
Re39	GNDA#105	GNDA#99	0.164219	$MET2	$W=1.46e-06
+ $X=48.5205 $Y=39.75
Re40	GNDA#99	GNDA#93	0.164219	$MET2	$W=1.46e-06
+ $X=45.2805 $Y=39.75
Re41	GNDA#93	GNDA#87	0.164219	$MET2	$W=1.46e-06
+ $X=42.0405 $Y=39.75
Re42	GNDA#87	GNDA#81	0.164219	$MET2	$W=1.46e-06
+ $X=38.8005 $Y=39.75
Re43	GNDA#81	GNDA#75	0.164219	$MET2	$W=1.46e-06
+ $X=35.5605 $Y=39.75
Re44	GNDA#75	GNDA#69	0.164219	$MET2	$W=1.46e-06
+ $X=32.3205 $Y=39.75
Re45	GNDA#69	GNDA#63	0.164219	$MET2	$W=1.46e-06
+ $X=29.0805 $Y=39.75
Re46	GNDA#63	GNDA#57	0.164219	$MET2	$W=1.46e-06
+ $X=25.8405 $Y=39.75
Re47	GNDA#57	GNDA#51	0.164219	$MET2	$W=1.46e-06
+ $X=22.6005 $Y=39.75
Re48	GNDA#51	GNDA#45	0.164219	$MET2	$W=1.46e-06
+ $X=19.3605 $Y=39.75
Re49	GNDA#45	GNDA#39	0.164219	$MET2	$W=1.46e-06
+ $X=16.1205 $Y=39.75
Re50	GNDA#39	GNDA#33	0.035479	$MET2	$W=1.46e-06
+ $X=14.5 $Y=39.75
Re51	GNDA#33	GNDA#25	0.128740	$MET2	$W=1.46e-06
+ $X=12.5305 $Y=39.75
Re52	GNDA#25	GNDA#488	0.046884	$MET2	$W=1.46e-06
+ $X=11.26 $Y=39.75
Re53	GNDA#488	GNDA#361	0.445705	$MET2	$W=1.46e-06
+ $X=10.028 $Y=39.75
Re54	net9#164	net9#183	2.771217	$MET2	$W=4.6e-07
+ $X=49.7905 $Y=27.42
Re55	net9#183	net9#184	0.521217	$MET2	$W=4.6e-07
+ $X=46.5505 $Y=27.42
Re56	net9#184	net9#185	0.521217	$MET2	$W=4.6e-07
+ $X=43.3105 $Y=27.42
Re57	net9#185	net9#186	0.521217	$MET2	$W=4.6e-07
+ $X=40.0705 $Y=27.42
Re58	net9#186	net9#187	0.521217	$MET2	$W=4.6e-07
+ $X=36.8305 $Y=27.42
Re59	net9#187	net9#188	0.521217	$MET2	$W=4.6e-07
+ $X=33.5905 $Y=27.42
Re60	net9#188	net9#189	0.521217	$MET2	$W=4.6e-07
+ $X=30.3505 $Y=27.42
Re61	net9#189	net9#190	0.521217	$MET2	$W=4.6e-07
+ $X=27.1105 $Y=27.42
Re62	net9#190	net9#191	0.521217	$MET2	$W=4.6e-07
+ $X=23.8705 $Y=27.42
Re63	net9#191	net9#192	0.521217	$MET2	$W=4.6e-07
+ $X=20.6305 $Y=27.42
Re64	net9#192	net9#193	0.521217	$MET2	$W=4.6e-07
+ $X=17.3905 $Y=27.42
Re65	net9#193	net9#194	2.590522	$MET2	$W=4.6e-07
+ $X=11.4755 $Y=27.42
Re66	GNDA#399	GNDA#124	0.466740	$MET2	$W=1.46e-06
+ $X=56.4355 $Y=15.03
Re67	GNDA#124	GNDA#114	0.128740	$MET2	$W=1.46e-06
+ $X=54.6505 $Y=15.03
Re68	GNDA#114	GNDA#108	0.164219	$MET2	$W=1.46e-06
+ $X=51.7605 $Y=15.03
Re69	GNDA#108	GNDA#102	0.164219	$MET2	$W=1.46e-06
+ $X=48.5205 $Y=15.03
Re70	GNDA#102	GNDA#96	0.164219	$MET2	$W=1.46e-06
+ $X=45.2805 $Y=15.03
Re71	GNDA#96	GNDA#90	0.164219	$MET2	$W=1.46e-06
+ $X=42.0405 $Y=15.03
Re72	GNDA#90	GNDA#84	0.164219	$MET2	$W=1.46e-06
+ $X=38.8005 $Y=15.03
Re73	GNDA#84	GNDA#78	0.164219	$MET2	$W=1.46e-06
+ $X=35.5605 $Y=15.03
Re74	GNDA#78	GNDA#72	0.164219	$MET2	$W=1.46e-06
+ $X=32.3205 $Y=15.03
Re75	GNDA#72	GNDA#66	0.164219	$MET2	$W=1.46e-06
+ $X=29.0805 $Y=15.03
Re76	GNDA#66	GNDA#60	0.164219	$MET2	$W=1.46e-06
+ $X=25.8405 $Y=15.03
Re77	GNDA#60	GNDA#54	0.164219	$MET2	$W=1.46e-06
+ $X=22.6005 $Y=15.03
Re78	GNDA#54	GNDA#48	0.164219	$MET2	$W=1.46e-06
+ $X=19.3605 $Y=15.03
Re79	GNDA#48	GNDA#42	0.164219	$MET2	$W=1.46e-06
+ $X=16.1205 $Y=15.03
Re80	GNDA#42	GNDA#36	0.035479	$MET2	$W=1.46e-06
+ $X=14.5 $Y=15.03
Re81	GNDA#36	GNDA#30	0.128740	$MET2	$W=1.46e-06
+ $X=12.5305 $Y=15.03
Re82	GNDA#30	GNDA#507	0.046884	$MET2	$W=1.46e-06
+ $X=11.26 $Y=15.03
Re83	GNDA#507	GNDA#360	0.445705	$MET2	$W=1.46e-06
+ $X=10.028 $Y=15.03
Re84	net13#51	net13#30	0.535740	$MET2	$W=1.46e-06
+ $X=54.3355 $Y=13.25
Re85	net13#30	net13#21	0.492658	$MET2	$W=1.46e-06
+ $X=44.5805 $Y=13.25
Re86	net13#21	net13#9	0.492658	$MET2	$W=1.46e-06
+ $X=34.8605 $Y=13.25
Re87	net13#9	net13#3	1.992658	$MET2	$W=1.46e-06
+ $X=25.1405 $Y=13.25
Re88	net15#45	net15#21	0.815521	$MET2	$W=1.46e-06
+ $X=53.8555 $Y=11.47
Re89	net15#21	net15#15	0.492658	$MET2	$W=1.46e-06
+ $X=41.3405 $Y=11.47
Re90	net15#15	net15#9	0.492658	$MET2	$W=1.46e-06
+ $X=31.6205 $Y=11.47
Re91	net15#9	net15#3	1.992658	$MET2	$W=1.46e-06
+ $X=21.9005 $Y=11.47
Re92	net9#171	net9#144	1.992658	$MET2	$W=1.46e-06
+ $X=47.8205 $Y=9.69
Re93	net9#144	net9#117	0.492658	$MET2	$W=1.46e-06
+ $X=38.1005 $Y=9.69
Re94	net9#117	net9#87	0.492658	$MET2	$W=1.46e-06
+ $X=28.3805 $Y=9.69
Re95	net9#87	net9#199	0.854548	$MET2	$W=1.46e-06
+ $X=15.4805 $Y=9.69
Re96	VDDA#244	VDDA#1206	0.498225	$MET2	$W=6.135e-06
+ $X=62.48 $Y=119.8125
Re99	A#20	A#186	3.105423	$MET2	$W=3e-07
+ $X=70.1 $Y=114.1145
Re100	A#186	A#187	3.300667	$MET2	$W=3e-07
+ $X=70.1 $Y=125.0595
Re101	A#22	A#189	3.105423	$MET2	$W=3e-07
+ $X=70.1 $Y=111.1555
Re102	A#189	A#190	3.300667	$MET2	$W=3e-07
+ $X=70.1 $Y=100.2105
Re103	A#191	A#24	3.537509	$MET2	$W=3e-07
+ $X=72.64 $Y=125.0605
Re104	A#26	A#194	3.537509	$MET2	$W=3e-07
+ $X=72.64 $Y=100.2105
Re105	A#195	A#32	3.537509	$MET2	$W=3e-07
+ $X=73.5 $Y=125.0605
Re106	A#34	A#198	3.537509	$MET2	$W=3e-07
+ $X=73.5 $Y=100.2105
Re109	net14#84	net14#38	1.933756	$MET2	$W=3e-07
+ $X=75.08 $Y=112.2055
Re110	VREF#34	VREF#66	6.447379	$MET2	$W=3e-07
+ $X=74.46 $Y=113.0555
Re111	net7#714	net7#221	3.976576	$MET2	$W=3e-07
+ $X=76.04 $Y=125.9505
Re112	net12#50	net12#162	3.976576	$MET2	$W=3e-07
+ $X=76.04 $Y=99.3205
Re113	A#203	A#43	3.537509	$MET2	$W=3e-07
+ $X=76.9 $Y=125.0605
Re114	A#45	A#206	3.537509	$MET2	$W=3e-07
+ $X=76.9 $Y=100.2105
Re119	net14#40	net14#89	4.707200	$MET2	$W=3e-07
+ $X=78.17 $Y=113.445
Re122	VREF#36	VREF#70	4.702267	$MET2	$W=3e-07
+ $X=78.17 $Y=111.815
Re123	net12#163	net12#62	4.415642	$MET2	$W=3e-07
+ $X=79.44 $Y=126.8405
Re124	net7#226	net7#717	4.415642	$MET2	$W=3e-07
+ $X=79.44 $Y=98.4305
Re125	A#211	A#54	3.537509	$MET2	$W=3e-07
+ $X=80.3 $Y=125.0605
Re126	A#56	A#214	3.537509	$MET2	$W=3e-07
+ $X=80.3 $Y=100.2105
Re129	net14#90	net14#42	6.433756	$MET2	$W=3e-07
+ $X=81.88 $Y=112.2055
Re130	VREF#38	VREF#72	6.447379	$MET2	$W=3e-07
+ $X=81.26 $Y=113.0555
Re131	net15#39	net15#36	1.316796	$MET2	$W=1.96e-06
+ $X=79.7155 $Y=55.475
Re132	net15#36	net15#33	0.191796	$MET2	$W=1.96e-06
+ $X=74.6355 $Y=55.475
Re133	net15#33	net15#30	0.191796	$MET2	$W=1.96e-06
+ $X=69.5555 $Y=55.475
Re134	net15#30	net15#54	0.133438	$MET2	$W=1.96e-06
+ $X=66.153 $Y=55.475
Re135	net15#54	net15#27	1.181995	$MET2	$W=1.98e-06
+ $X=63.46 $Y=55.47
Re136	BIAS#156	BIAS#152	2.658609	$MET2	$W=4.6e-07
+ $X=79.7155 $Y=70.535
Re137	BIAS#152	BIAS#148	0.408609	$MET2	$W=4.6e-07
+ $X=77.1755 $Y=70.535
Re138	BIAS#148	BIAS#144	0.408609	$MET2	$W=4.6e-07
+ $X=74.6355 $Y=70.535
Re139	BIAS#144	BIAS#140	0.408609	$MET2	$W=4.6e-07
+ $X=72.0955 $Y=70.535
Re140	BIAS#140	BIAS#136	0.408609	$MET2	$W=4.6e-07
+ $X=69.5555 $Y=70.535
Re141	BIAS#136	BIAS#132	0.408609	$MET2	$W=4.6e-07
+ $X=67.0155 $Y=70.535
Re142	BIAS#132	BIAS#128	0.408609	$MET2	$W=4.6e-07
+ $X=64.4755 $Y=70.535
Re143	BIAS#128	BIAS#124	1.601457	$MET2	$W=4.6e-07
+ $X=58.228 $Y=70.535
Re144	BIAS#124	BIAS#120	0.408609	$MET2	$W=4.6e-07
+ $X=51.9805 $Y=70.535
Re145	BIAS#120	BIAS#116	0.408609	$MET2	$W=4.6e-07
+ $X=49.4405 $Y=70.535
Re146	BIAS#116	BIAS#112	0.408609	$MET2	$W=4.6e-07
+ $X=46.9005 $Y=70.535
Re147	BIAS#112	BIAS#108	0.408609	$MET2	$W=4.6e-07
+ $X=44.3605 $Y=70.535
Re148	BIAS#108	BIAS#104	0.408609	$MET2	$W=4.6e-07
+ $X=41.8205 $Y=70.535
Re149	BIAS#104	BIAS#100	0.408609	$MET2	$W=4.6e-07
+ $X=39.2805 $Y=70.535
Re150	BIAS#100	BIAS#96	0.408609	$MET2	$W=4.6e-07
+ $X=36.7405 $Y=70.535
Re151	BIAS#96	BIAS#92	1.443804	$MET2	$W=4.6e-07
+ $X=30.983 $Y=70.535
Re152	BIAS#92	BIAS#85	0.408609	$MET2	$W=4.6e-07
+ $X=25.2255 $Y=70.535
Re153	BIAS#85	BIAS#81	0.408609	$MET2	$W=4.6e-07
+ $X=22.6855 $Y=70.535
Re154	BIAS#81	BIAS#74	0.408609	$MET2	$W=4.6e-07
+ $X=20.1455 $Y=70.535
Re155	BIAS#74	BIAS#70	0.408609	$MET2	$W=4.6e-07
+ $X=17.6055 $Y=70.535
Re156	BIAS#70	BIAS#63	0.408609	$MET2	$W=4.6e-07
+ $X=15.0655 $Y=70.535
Re157	BIAS#63	BIAS#59	0.408609	$MET2	$W=4.6e-07
+ $X=12.5255 $Y=70.535
Re158	BIAS#59	BIAS#52	0.408609	$MET2	$W=4.6e-07
+ $X=9.9855 $Y=70.535
Re159	BIAS#52	BIAS#181	2.389184	$MET2	$W=4.6e-07
+ $X=5.915 $Y=65.498
Re160	BIAS#181	BIAS#55	0.144199	$MET2	$W=1.46e-06
+ $X=8.692 $Y=58.145
Re161	BIAS#55	BIAS#66	0.257479	$MET2	$W=1.46e-06
+ $X=12.5245 $Y=58.145
Re162	BIAS#66	BIAS#77	0.257479	$MET2	$W=1.46e-06
+ $X=17.6045 $Y=58.145
Re163	BIAS#77	BIAS#88	1.007479	$MET2	$W=1.46e-06
+ $X=22.6845 $Y=58.145
Re164	net7#718	net7#228	3.976576	$MET2	$W=3e-07
+ $X=82.84 $Y=125.9505
Re165	net12#64	net12#166	3.976576	$MET2	$W=3e-07
+ $X=82.84 $Y=99.3205
Re166	A#219	A#62	3.537509	$MET2	$W=3e-07
+ $X=83.7 $Y=125.0605
Re167	A#64	A#222	3.537509	$MET2	$W=3e-07
+ $X=83.7 $Y=100.2105
Re172	net14#44	net14#95	4.707200	$MET2	$W=3e-07
+ $X=84.97 $Y=113.445
Re175	VREF#40	VREF#76	4.702267	$MET2	$W=3e-07
+ $X=84.97 $Y=111.815
Re176	A#227	A#52	1.499265	$MET2	$W=1.96e-06
+ $X=85.165 $Y=73.223
Re177	A#52	A#37	0.191796	$MET2	$W=1.96e-06
+ $X=77.1755 $Y=57.755
Re178	A#37	A#14	0.191796	$MET2	$W=1.96e-06
+ $X=72.0955 $Y=57.755
Re179	A#14	A#11	1.316796	$MET2	$W=1.96e-06
+ $X=67.0155 $Y=57.755
[...]
C15387	net9	GNDA	1.57598e-16	$X=15.7705 $Y=28.401
C15388	net9#3	GNDA	1.60328e-16	$X=15.77 $Y=26.382
C15389	BIAS#5	GNDA	1.63719e-16	$X=13.7955 $Y=69.496
C15390	BIAS#3	GNDA	1.63648e-16	$X=11.2555 $Y=69.496
C15391	BIAS#1	GNDA	1.68523e-16	$X=8.7155 $Y=69.496
C15392	VOUT#102	GNDA	1.59771e-18	$X=374.7645 $Y=32.6675
C15393	net6#8	GNDA	6.16443e-18	$X=373.2445 $Y=32.8575
C15394	VDDA#1040	GNDA	4.55462e-18	$X=373.048 $Y=52.2355
C15395	net1#14	GNDA	8.2563e-18	$X=366.9295 $Y=32.8575
C15396	net1#11	GNDA	8.2563e-18	$X=363.8695 $Y=32.8575
C15397	VDDA#934	GNDA	5.35343e-18	$X=362.5385 $Y=175.139
C15398	VDDA#941	GNDA	5.35343e-18	$X=362.6245 $Y=161.803
C15399	VDDA#944	GNDA	5.35343e-18	$X=362.6245 $Y=143.0035
C15400	VDDA#947	GNDA	5.35343e-18	$X=362.6245 $Y=124.2035
C15401	VDDA#950	GNDA	5.35343e-18	$X=362.6245 $Y=105.404
C15402	VDDA#938	GNDA	3.46209e-18	$X=362.529 $Y=67.9665
C15403	VDDA#926	GNDA	9.6343e-18	$X=361.8085 $Y=175.1385
C15404	net5#137	GNDA	9.6343e-18	$X=361.8095 $Y=161.826
C15405	net5#140	GNDA	9.6343e-18	$X=361.8095 $Y=143.0265
C15406	net5#143	GNDA	9.6343e-18	$X=361.8095 $Y=124.2265
C15407	net5#146	GNDA	9.6343e-18	$X=361.8095 $Y=105.4395
C15408	net2#23	GNDA	8.82948e-18	$X=357.6745 $Y=32.8575
C15409	VOUT#96	GNDA	8.33782e-18	$X=356.1445 $Y=32.6675
C15410	net6#6	GNDA	2.22633e-17	$X=354.8525 $Y=12.335
C15411	net2#20	GNDA	1.913e-17	$X=354.6045 $Y=32.8575
C15412	net6#4	GNDA	9.08501e-18	$X=353.1325 $Y=12.335
C15413	VOUT#93	GNDA	1.20164e-17	$X=353.065 $Y=32.6675
C15414	net2#17	GNDA	8.2563e-18	$X=351.535 $Y=32.8575
C15415	VDDA#887	GNDA	5.35343e-18	$X=351.2985 $Y=175.139
C15416	VDDA#894	GNDA	5.35343e-18	$X=351.3845 $Y=161.803
C15417	VDDA#897	GNDA	5.35343e-18	$X=351.3845 $Y=143.0035
C15418	VDDA#900	GNDA	5.35343e-18	$X=351.3845 $Y=124.2035
C15419	VDDA#903	GNDA	5.35343e-18	$X=351.3845 $Y=105.404
C15420	VDDA#891	GNDA	3.46209e-18	$X=351.2895 $Y=67.9665
C15421	VDDA#879	GNDA	9.6343e-18	$X=350.5685 $Y=175.1385
C15422	net5#122	GNDA	9.6343e-18	$X=350.5695 $Y=161.826
C15423	net5#125	GNDA	9.6343e-18	$X=350.5695 $Y=143.0265
C15424	net5#128	GNDA	9.6343e-18	$X=350.5695 $Y=124.2265
C15425	net5#131	GNDA	9.6343e-18	$X=350.5695 $Y=105.4395
C15426	net1#9	GNDA	8.82323e-19	$X=345.5925 $Y=12.335
C15427	net3#41	GNDA	1.51183e-17	$X=345.37 $Y=32.8575
C15428	VOUT#90	GNDA	1.50199e-17	$X=343.84 $Y=32.6675
C15429	net1#7	GNDA	6.91172e-18	$X=343.8725 $Y=12.335
C15430	net3#38	GNDA	2.1417e-17	$X=342.2995 $Y=32.8575
C15431	VOUT#87	GNDA	1.58478e-17	$X=340.76 $Y=32.6675
C15432	VDDA#840	GNDA	5.35343e-18	$X=340.0585 $Y=175.139
C15433	VDDA#847	GNDA	5.35343e-18	$X=340.145 $Y=161.803
C15434	VDDA#850	GNDA	5.35343e-18	$X=340.145 $Y=143.0035
C15435	VDDA#853	GNDA	5.35343e-18	$X=340.145 $Y=124.2035
C15436	VDDA#856	GNDA	5.35343e-18	$X=340.145 $Y=105.404
C15437	VDDA#844	GNDA	3.46209e-18	$X=340.0495 $Y=67.9665
C15438	VDDA#832	GNDA	9.6343e-18	$X=339.3285 $Y=175.1385
C15439	net5#107	GNDA	9.6343e-18	$X=339.33 $Y=161.826
C15440	net5#110	GNDA	9.6343e-18	$X=339.33 $Y=143.0265
C15441	net5#113	GNDA	9.6343e-18	$X=339.33 $Y=124.2265
C15442	net5#116	GNDA	9.6343e-18	$X=339.3295 $Y=105.4395
C15443	net3#35	GNDA	1.59225e-17	$X=339.22 $Y=32.8575
C15444	VOUT#84	GNDA	1.45592e-17	$X=337.68 $Y=32.6675
C15445	net2#15	GNDA	1.3944e-18	$X=336.3325 $Y=12.335
C15446	net3#32	GNDA	1.52482e-17	$X=336.14 $Y=32.8575
C15447	VOUT#81	GNDA	7.27958e-18	$X=334.6 $Y=32.6675
C15448	net3#29	GNDA	8.2563e-18	$X=333.07 $Y=32.8575
C15449	VDDA#793	GNDA	5.35343e-18	$X=328.8185 $Y=175.139
C15450	VDDA#800	GNDA	5.35343e-18	$X=328.905 $Y=161.803
C15451	VDDA#803	GNDA	5.35343e-18	$X=328.905 $Y=143.0035
C15452	VDDA#806	GNDA	5.35343e-18	$X=328.905 $Y=124.2035
C15453	VDDA#809	GNDA	5.35343e-18	$X=328.905 $Y=105.404
C15454	VDDA#797	GNDA	3.46209e-18	$X=328.81 $Y=67.9665
C15455	VDDA#785	GNDA	9.6343e-18	$X=328.0885 $Y=175.1385
C15456	net5#92	GNDA	9.6343e-18	$X=328.09 $Y=161.826
C15457	net5#95	GNDA	9.6343e-18	$X=328.09 $Y=143.0265
C15458	net5#98	GNDA	9.6343e-18	$X=328.09 $Y=124.2265
C15459	net5#101	GNDA	9.6343e-18	$X=328.09 $Y=105.4395
C15460	net3#27	GNDA	1.56214e-19	$X=327.073 $Y=12.335
C15461	VOUT#78	GNDA	7.27958e-18	$X=325.3955 $Y=32.6675
C15462	net3#25	GNDA	1.56214e-19	$X=325.353 $Y=12.335
C15463	net4#74	GNDA	1.56495e-17	$X=323.855 $Y=32.8575
C15464	VOUT#75	GNDA	1.26966e-17	$X=322.3155 $Y=32.6675
C15465	net4#71	GNDA	1.47463e-17	$X=320.775 $Y=32.8575
C15466	VOUT#72	GNDA	1.37759e-18	$X=319.2355 $Y=32.6675
C15467	net4#66	GNDA	1.4002e-18	$X=317.813 $Y=12.335
C15468	net4#68	GNDA	1.45592e-17	$X=317.6955 $Y=32.8575
C15469	VDDA#746	GNDA	5.35343e-18	$X=317.5785 $Y=175.139
C15470	VDDA#753	GNDA	5.35343e-18	$X=317.665 $Y=161.803
C15471	VDDA#756	GNDA	5.35343e-18	$X=317.665 $Y=143.0035
C15472	VDDA#759	GNDA	5.35343e-18	$X=317.665 $Y=124.2035
C15473	VDDA#762	GNDA	5.35343e-18	$X=317.665 $Y=105.404
C15474	VDDA#750	GNDA	3.46209e-18	$X=317.57 $Y=67.9665
C15475	net19#46	GNDA	9.6343e-18	$X=316.85 $Y=161.891
C15476	net4#54	GNDA	9.6343e-18	$X=316.8505 $Y=142.9615
C15477	net4#57	GNDA	9.6343e-18	$X=316.8505 $Y=124.162
C15478	net4#60	GNDA	9.6343e-18	$X=316.8505 $Y=105.3745
C15479	net4#49	GNDA	1.45592e-17	$X=314.6155 $Y=32.8575
C15480	net4#46	GNDA	1.45592e-17	$X=311.5355 $Y=32.8575
C15481	net4#43	GNDA	7.27958e-18	$X=308.4555 $Y=32.8575
C15482	VDDA#699	GNDA	5.35343e-18	$X=306.3385 $Y=175.139
C15483	VDDA#703	GNDA	5.35343e-18	$X=306.4255 $Y=161.803
C15484	VDDA#706	GNDA	5.35343e-18	$X=306.4255 $Y=143.0035
C15485	VDDA#709	GNDA	5.35343e-18	$X=306.4255 $Y=124.2035
C15486	VDDA#712	GNDA	5.35343e-18	$X=306.4255 $Y=105.404
C15487	VDDA#694	GNDA	9.6343e-18	$X=305.6085 $Y=175.1385
C15488	net4#37	GNDA	9.6343e-18	$X=305.6105 $Y=161.761
C15489	net3#16	GNDA	9.6343e-18	$X=305.6105 $Y=142.8965
C15490	net4#40	GNDA	9.6343e-18	$X=305.6105 $Y=124.162
C15491	net3#19	GNDA	9.6343e-18	$X=305.6105 $Y=105.3095
C15492	net3#22	GNDA	9.6343e-18	$X=305.6105 $Y=86.4975
C15493	net4#34	GNDA	3.14216e-18	$X=305.3755 $Y=32.8575
C15494	VOUT#57	GNDA	2.5564e-18	$X=303.8355 $Y=32.6675
C15495	net4#31	GNDA	6.16443e-18	$X=302.3055 $Y=32.8575
C15496	VDDA#661	GNDA	5.35343e-18	$X=295.099 $Y=175.139
C15497	VDDA#665	GNDA	5.35343e-18	$X=295.1855 $Y=161.803
C15498	VDDA#668	GNDA	5.35343e-18	$X=295.1855 $Y=143.0035
C15499	VDDA#671	GNDA	5.35343e-18	$X=295.1855 $Y=124.2035
C15500	VDDA#674	GNDA	5.35343e-18	$X=295.1855 $Y=105.404
C15501	VDDA#656	GNDA	9.6343e-18	$X=294.369 $Y=175.1385
C15502	net4#28	GNDA	7.81635e-18	$X=294.371 $Y=161.761
C15503	net19#37	GNDA	9.6343e-18	$X=294.3705 $Y=143.0915
C15504	net3#13	GNDA	7.58503e-18	$X=294.371 $Y=124.097
C15505	net19#40	GNDA	7.81635e-18	$X=294.3705 $Y=105.5045
C15506	net19#43	GNDA	9.6343e-18	$X=294.3705 $Y=86.6925
C15507	net5#76	GNDA	7.27958e-18	$X=292.681 $Y=32.8575
C15508	net5#73	GNDA	1.45592e-17	$X=289.601 $Y=32.8575
C15509	net5#70	GNDA	1.45592e-17	$X=286.521 $Y=32.8575
C15510	VDDA#623	GNDA	5.35343e-18	$X=283.859 $Y=175.139
C15511	VDDA#627	GNDA	5.35343e-18	$X=283.946 $Y=161.803
C15512	VDDA#630	GNDA	5.35343e-18	$X=283.946 $Y=143.0035
C15513	VDDA#633	GNDA	5.35343e-18	$X=283.946 $Y=124.2035
C15514	VDDA#636	GNDA	5.35343e-18	$X=283.946 $Y=105.404
C15515	net5#67	GNDA	1.45592e-17	$X=283.441 $Y=32.8575
C15516	VDDA#618	GNDA	9.6343e-18	$X=283.129 $Y=175.1385
C15517	net4#25	GNDA	5.35343e-18	$X=283.131 $Y=161.761
C15518	net2#7	GNDA	7.81635e-18	$X=283.131 $Y=142.8315
C15519	net19#31	GNDA	5.35343e-18	$X=283.131 $Y=124.2915
C15520	net6	GNDA	5.35343e-18	$X=301.3395 $Y=81.9185
C15521	net2#10	GNDA	7.81635e-18	$X=283.131 $Y=86.4325
C15522	net5#64	GNDA	1.45592e-17	$X=280.361 $Y=32.8575
C15523	VDDA#585	GNDA	5.35343e-18	$X=272.619 $Y=175.139
C15524	VDDA#580	GNDA	9.6343e-18	$X=271.889 $Y=175.1385
C15525	net5#55	GNDA	5.35343e-18	$X=271.891 $Y=161.826
C15526	net2	GNDA	5.35343e-18	$X=271.8915 $Y=142.8315
C15527	net1#4	GNDA	7.58503e-18	$X=271.8915 $Y=123.967
C15528	net19#28	GNDA	5.35343e-18	$X=271.891 $Y=105.5045
C15529	net2#4	GNDA	9.6343e-18	$X=271.8915 $Y=86.4325
C15530	VDDA#547	GNDA	5.35343e-18	$X=261.379 $Y=175.139
C15531	VDDA#542	GNDA	9.6343e-18	$X=260.649 $Y=175.1385
C15532	net5#40	GNDA	7.81635e-18	$X=260.6515 $Y=161.826
C15533	net19#19	GNDA	7.81635e-18	$X=260.6515 $Y=143.0915
C15534	net19#22	GNDA	5.35343e-18	$X=260.6515 $Y=124.2915
C15535	net1	GNDA	7.81635e-18	$X=260.6515 $Y=105.1795
C15536	net19#25	GNDA	9.6343e-18	$X=260.6515 $Y=86.6925
C15537	VDDA#509	GNDA	5.35343e-18	$X=250.139 $Y=175.139
C15538	VDDA#504	GNDA	9.6343e-18	$X=249.409 $Y=175.1385
C15539	net5#25	GNDA	9.6343e-18	$X=249.4115 $Y=161.826
C15540	net3	GNDA	9.6343e-18	$X=249.4115 $Y=142.8965
C15541	net3#4	GNDA	9.6343e-18	$X=249.4115 $Y=124.097
C15542	net3#7	GNDA	9.6343e-18	$X=249.4115 $Y=105.3095
C15543	net3#10	GNDA	9.6343e-18	$X=249.4115 $Y=86.4975
C15544	VDDA#471	GNDA	5.35343e-18	$X=238.899 $Y=175.139
C15545	VDDA#487	GNDA	5.35343e-18	$X=238.987 $Y=86.6045
C15546	VDDA#466	GNDA	9.6343e-18	$X=238.169 $Y=175.1385
C15547	net5#19	GNDA	9.6343e-18	$X=238.172 $Y=161.826
C15548	net4	GNDA	9.6343e-18	$X=238.172 $Y=142.9615
C15549	net4#4	GNDA	9.6343e-18	$X=238.172 $Y=124.162
C15550	net4#7	GNDA	9.6343e-18	$X=238.172 $Y=105.3745
C15551	net4#10	GNDA	9.6343e-18	$X=238.172 $Y=86.5625
C15552	net14#81	GNDA	7.27958e-18	$X=237.522 $Y=32.8575
C15553	net19#13	GNDA	1.52482e-17	$X=235.982 $Y=32.6675
C15554	net14#78	GNDA	1.65266e-17	$X=234.442 $Y=32.8575
C15555	net19#10	GNDA	1.65266e-17	$X=232.902 $Y=32.6675
C15556	net14#75	GNDA	1.65266e-17	$X=231.362 $Y=32.8575
C15557	net19#7	GNDA	1.65266e-17	$X=229.822 $Y=32.6675
C15558	net14#72	GNDA	1.65266e-17	$X=228.282 $Y=32.8575
C15559	VDDA#433	GNDA	5.35343e-18	$X=227.659 $Y=175.139
C15560	VDDA#437	GNDA	5.35343e-18	$X=227.747 $Y=161.803
C15561	VDDA#440	GNDA	5.35343e-18	$X=227.747 $Y=143.0035
C15562	VDDA#443	GNDA	5.35343e-18	$X=227.747 $Y=124.2035
C15563	VDDA#446	GNDA	5.35343e-18	$X=227.747 $Y=105.404
C15564	VDDA#449	GNDA	5.35343e-18	$X=227.747 $Y=86.6045
C15565	VDDA#428	GNDA	9.6343e-18	$X=226.929 $Y=175.1385
C15566	net5	GNDA	9.6343e-18	$X=226.932 $Y=161.826
C15567	net5#4	GNDA	9.6343e-18	$X=226.932 $Y=143.0265
C15568	net5#7	GNDA	9.6343e-18	$X=226.932 $Y=124.2265
C15569	net5#16	GNDA	9.6343e-18	$X=226.932 $Y=105.4355
C15570	net5#10	GNDA	9.6343e-18	$X=226.932 $Y=86.6275
C15571	net19#4	GNDA	1.72156e-17	$X=226.742 $Y=32.6675
C15572	net14#69	GNDA	9.24703e-18	$X=225.202 $Y=32.8575
C15573	net19	GNDA	4.72568e-18	$X=223.6725 $Y=32.6675
C15574	VDDA#402	GNDA	3.46209e-18	$X=216.412 $Y=143.165
C15575	VDDA#405	GNDA	3.46209e-18	$X=216.412 $Y=124.365
C15576	VDDA#411	GNDA	3.46209e-18	$X=216.412 $Y=86.766
C15577	VDDA#414	GNDA	3.46209e-18	$X=216.412 $Y=67.9665
C15578	VDDA#323	GNDA	4.55462e-18	$X=205.179 $Y=52.2355
C15579	VDDA#276	GNDA	7.92208e-19	$X=167.7585 $Y=167.8275
C15580	VDDA#282	GNDA	6.54662e-19	$X=167.7585 $Y=154.7055
C15581	EN#15	GNDA	3.21689e-18	$X=91.6245 $Y=64.9145
C15582	VDDA#202	GNDA	4.28995e-18	$X=90.8295 $Y=65.0345
C15583	VDDA#1089	GNDA	1.97844e-14	$X=283.198 $Y=113.7645
C15584	VDDA#1106	GNDA	7.05543e-15	$X=299.8305 $Y=33.808
C15585	VDDA#1121	GNDA	5.46488e-17	$X=332.012 $Y=13.1455
C15586	net10#11	GNDA	4.25964e-18	$X=164.671 $Y=127.735
C15587	net30#162	GNDA	8.30871e-18	$X=164.67 $Y=106.877
C15588	VDDA#1042	GNDA	1.87932e-14	$X=117.611 $Y=157.6755
C15589	VDDA#230	GNDA	1.69692e-16	$X=102.502 $Y=114.1335
C15590	A#173	GNDA	1.24466e-18	$X=130.409 $Y=119.284
C15591	A#175	GNDA	1.2606e-18	$X=130.409 $Y=105.984
C15592	net9#174	GNDA	5.97605e-19	$X=99.1845 $Y=61.3445
C15593	net9#172	GNDA	2.19695e-18	$X=97.4045 $Y=61.3445
C15594	VDDA#204	GNDA	3.3123e-19	$X=91.565 $Y=65.3285
C15595	EN#17	GNDA	6.32198e-19	$X=91.6245 $Y=57.5595
C15596	A#15	GNDA	1.24466e-18	$X=70.1295 $Y=119.284
C15597	A#17	GNDA	1.2606e-18	$X=70.1295 $Y=105.984
C15598	A#9	GNDA	1.05746e-18	$X=64.4745 $Y=64.4345
C15599	net15#25	GNDA	7.85531e-19	$X=61.9645 $Y=64.4345
C15600	net13#34	GNDA	1.24146e-16	$X=52.6705 $Y=35.1555
C15601	net15#22	GNDA	6.32867e-17	$X=49.4305 $Y=35.007
C15602	net9#152	GNDA	4.09911e-17	$X=46.1905 $Y=34.8585
C15603	VDDA#1060	GNDA	3.56251e-15	$X=22.625 $Y=157.816
C15604	net13#22	GNDA	1.24146e-16	$X=42.951 $Y=35.1555
C15605	net15#16	GNDA	6.32867e-17	$X=39.711 $Y=35.007
C15606	net9#125	GNDA	4.09911e-17	$X=36.471 $Y=34.8585
C15607	net13#10	GNDA	1.24146e-16	$X=33.231 $Y=35.1555
C15608	net15#10	GNDA	6.32867e-17	$X=29.991 $Y=35.007
C15609	net9#95	GNDA	4.09911e-17	$X=26.751 $Y=34.8585
C15610	net13#4	GNDA	1.14168e-16	$X=23.5115 $Y=35.1555
C15611	net15#4	GNDA	6.32867e-17	$X=20.2715 $Y=35.007
C15612	net9#65	GNDA	1.77493e-18	$X=17.605 $Y=64.4345
C15613	net9#62	GNDA	4.09911e-17	$X=17.0315 $Y=34.8585
C15614	BIAS#64	GNDA	1.77493e-18	$X=15.065 $Y=64.4345
C15615	net9#52	GNDA	1.77493e-18	$X=12.525 $Y=64.4345
C15616	BIAS#53	GNDA	9.39725e-19	$X=9.985 $Y=64.4345
C15617	net9#49	GNDA	3.28673e-18	$X=7.475 $Y=64.4345
C15618	net8#14	GNDA	8.09684e-18	$X=21.7545 $Y=161.199
C15619	net8#16	GNDA	8.10537e-18	$X=21.754 $Y=158.939
C15620	net8#24	GNDA	8.09684e-18	$X=32.9945 $Y=161.199
C15621	net8#26	GNDA	8.10537e-18	$X=32.994 $Y=158.939
C15622	net12#52	GNDA	8.09684e-18	$X=73.6245 $Y=161.199
C15623	net12#54	GNDA	8.10537e-18	$X=73.624 $Y=158.939
C15624	net12#68	GNDA	8.09684e-18	$X=84.8645 $Y=161.199
C15625	net12#70	GNDA	8.10537e-18	$X=84.864 $Y=158.939
C15626	net12#86	GNDA	8.09684e-18	$X=96.1045 $Y=161.199
C15627	net12#88	GNDA	8.10537e-18	$X=96.104 $Y=158.939
C15628	net12#102	GNDA	8.09684e-18	$X=107.3445 $Y=161.199
C15629	net12#104	GNDA	8.10537e-18	$X=107.344 $Y=158.939
C15630	net12#118	GNDA	8.09684e-18	$X=118.5845 $Y=161.199
C15631	net12#120	GNDA	8.10537e-18	$X=118.584 $Y=158.939
C15632	net12#132	GNDA	8.09684e-18	$X=129.824 $Y=161.199
C15633	net12#134	GNDA	8.10537e-18	$X=129.8235 $Y=158.939
C15634	net12#142	GNDA	8.09684e-18	$X=141.064 $Y=161.199
C15635	net12#144	GNDA	8.10537e-18	$X=141.0635 $Y=158.939
C15636	net12#152	GNDA	8.09684e-18	$X=152.304 $Y=161.199
C15637	net12#154	GNDA	8.10537e-18	$X=152.3035 $Y=158.939
C15638	VDDA#325	GNDA	5.11114e-18	$X=211.479 $Y=173.554
C15639	VDDA#331	GNDA	5.11114e-18	$X=211.479 $Y=154.754
C15640	VDDA#337	GNDA	3.76562e-18	$X=211.479 $Y=135.954
C15641	VDDA#343	GNDA	3.76562e-18	$X=211.479 $Y=117.154
C15642	VDDA#349	GNDA	4.23329e-18	$X=211.479 $Y=98.3545
C15643	VDDA#355	GNDA	5.11114e-18	$X=211.479 $Y=79.5545
C15644	VDDA#361	GNDA	5.47966e-18	$X=211.479 $Y=60.7545
C15645	VDDA#417	GNDA	5.47966e-18	$X=222.719 $Y=173.554
C15646	VDDA#455	GNDA	5.47966e-18	$X=233.959 $Y=173.554
C15647	net7#313	GNDA	5.93753e-18	$X=232.6515 $Y=154.754
C15648	net7#319	GNDA	5.93753e-18	$X=232.6515 $Y=135.954
C15649	net7#325	GNDA	5.93753e-18	$X=232.6515 $Y=117.154
C15650	net7#331	GNDA	5.93753e-18	$X=232.6515 $Y=98.3545
C15651	net7#337	GNDA	5.93753e-18	$X=232.6515 $Y=79.5545
C15652	VDDA#493	GNDA	5.47966e-18	$X=245.199 $Y=173.554
C15653	net7#349	GNDA	5.93753e-18	$X=243.8915 $Y=154.754
C15654	net7#355	GNDA	5.93753e-18	$X=243.8915 $Y=135.954
C15655	net7#361	GNDA	5.93753e-18	$X=243.8915 $Y=117.154
C15656	net7#367	GNDA	5.93753e-18	$X=243.8915 $Y=98.3545
C15657	net7#373	GNDA	5.93753e-18	$X=243.8915 $Y=79.5545
C15658	VDDA#531	GNDA	5.47966e-18	$X=256.439 $Y=173.554
C15659	net7#385	GNDA	5.93753e-18	$X=255.1315 $Y=154.754
C15660	net7#391	GNDA	5.93753e-18	$X=255.1315 $Y=135.954
C15661	net7#397	GNDA	5.93753e-18	$X=255.1315 $Y=117.154
C15662	net7#403	GNDA	5.93753e-18	$X=255.1315 $Y=98.3545
C15663	net7#409	GNDA	5.93753e-18	$X=255.1315 $Y=79.5545
C15664	VDDA#569	GNDA	5.47966e-18	$X=267.679 $Y=173.554
C15665	net7#421	GNDA	5.93753e-18	$X=266.3715 $Y=154.754
C15666	net7#427	GNDA	5.93753e-18	$X=266.3715 $Y=135.954
C15667	net7#433	GNDA	5.93753e-18	$X=266.3715 $Y=117.154
C15668	net7#439	GNDA	5.93753e-18	$X=266.3715 $Y=98.3545
C15669	net7#445	GNDA	5.93753e-18	$X=266.3715 $Y=79.5545
C15670	VDDA#607	GNDA	5.47966e-18	$X=278.919 $Y=173.554
C15671	net7#457	GNDA	5.93753e-18	$X=277.6115 $Y=154.754
C15672	net7#463	GNDA	5.93753e-18	$X=277.6115 $Y=135.954
C15673	net7#469	GNDA	5.93753e-18	$X=277.6115 $Y=117.154
C15674	net7#475	GNDA	5.93753e-18	$X=277.6115 $Y=98.3545
C15675	net7#481	GNDA	5.93753e-18	$X=277.6115 $Y=79.5545
C15676	VDDA#645	GNDA	5.47966e-18	$X=290.159 $Y=173.554
C15677	net7#493	GNDA	5.93753e-18	$X=288.8515 $Y=154.754
C15678	net7#499	GNDA	5.93753e-18	$X=288.8515 $Y=135.954
C15679	net7#505	GNDA	5.93753e-18	$X=288.8515 $Y=117.154
C15680	net7#511	GNDA	5.93753e-18	$X=288.8515 $Y=98.3545
C15681	net7#517	GNDA	5.93753e-18	$X=288.8515 $Y=79.5545
C15682	VDDA#683	GNDA	5.47966e-18	$X=301.399 $Y=173.554
C15683	net7#529	GNDA	5.93753e-18	$X=300.0915 $Y=154.754
C15684	net7#535	GNDA	5.93753e-18	$X=300.0915 $Y=135.954
C15685	net7#541	GNDA	5.93753e-18	$X=300.0915 $Y=117.154
C15686	net7#547	GNDA	5.93753e-18	$X=300.0915 $Y=98.3545
C15687	net7#553	GNDA	5.93753e-18	$X=300.0915 $Y=79.5545
C15688	VDDA#721	GNDA	5.47966e-18	$X=312.639 $Y=173.554
C15689	net7#565	GNDA	5.93753e-18	$X=311.3315 $Y=154.754
C15690	net7#571	GNDA	5.93753e-18	$X=311.3315 $Y=135.954
C15691	net7#577	GNDA	5.93753e-18	$X=311.3315 $Y=117.154
C15692	net7#583	GNDA	5.93753e-18	$X=311.3315 $Y=98.3545
C15693	VDDA#727	GNDA	5.47966e-18	$X=312.639 $Y=60.7545
C15694	VDDA#768	GNDA	5.47966e-18	$X=323.879 $Y=173.554
C15695	net7#595	GNDA	5.93753e-18	$X=322.571 $Y=154.754
C15696	net7#601	GNDA	5.93753e-18	$X=322.571 $Y=135.954
C15697	net7#607	GNDA	5.93753e-18	$X=322.571 $Y=117.154
C15698	net7#613	GNDA	5.93753e-18	$X=322.571 $Y=98.3545
C15699	VDDA#774	GNDA	5.47966e-18	$X=323.879 $Y=60.7545
C15700	VDDA#815	GNDA	5.47966e-18	$X=335.119 $Y=173.554
C15701	net7#625	GNDA	5.93753e-18	$X=333.811 $Y=154.754
C15702	net7#631	GNDA	5.93753e-18	$X=333.811 $Y=135.954
C15703	net7#637	GNDA	5.93753e-18	$X=333.811 $Y=117.154
C15704	net7#643	GNDA	5.93753e-18	$X=333.811 $Y=98.3545
C15705	VDDA#821	GNDA	5.47966e-18	$X=335.119 $Y=60.7545
C15706	VDDA#862	GNDA	5.47966e-18	$X=346.359 $Y=173.554
C15707	net7#655	GNDA	5.93753e-18	$X=345.051 $Y=154.754
C15708	net7#661	GNDA	5.93753e-18	$X=345.051 $Y=135.954
C15709	net7#667	GNDA	5.93753e-18	$X=345.051 $Y=117.154
C15710	net7#673	GNDA	5.93753e-18	$X=345.051 $Y=98.3545
C15711	VDDA#868	GNDA	5.47966e-18	$X=346.359 $Y=60.7545
C15712	VDDA#909	GNDA	5.47966e-18	$X=357.599 $Y=173.554
C15713	net7#685	GNDA	6.68345e-18	$X=356.291 $Y=154.754
C15714	net7#691	GNDA	6.68345e-18	$X=356.291 $Y=135.954
C15715	net7#697	GNDA	6.68345e-18	$X=356.291 $Y=117.154
C15716	net7#703	GNDA	6.68345e-18	$X=356.291 $Y=98.3545
C15717	VDDA#915	GNDA	5.47966e-18	$X=357.599 $Y=60.7545
C15718	VDDA#956	GNDA	5.47966e-18	$X=368.839 $Y=173.554
C15719	VDDA#962	GNDA	5.47966e-18	$X=368.839 $Y=154.754
C15720	VDDA#968	GNDA	5.47966e-18	$X=368.839 $Y=135.954
C15721	VDDA#974	GNDA	5.47966e-18	$X=368.839 $Y=117.154
C15722	VDDA#980	GNDA	5.47966e-18	$X=368.839 $Y=98.3545
C15723	VDDA#986	GNDA	5.47966e-18	$X=368.839 $Y=79.5545
C15724	VDDA#992	GNDA	5.47966e-18	$X=368.839 $Y=60.7545
C15725	VDDA#1265	GNDA	7.48031e-16	$X=230.3175 $Y=46.319
C15726	VDDA#1071	GNDA	1.4599e-15	$X=46.3995 $Y=140.109
C15727	VDDA#1087	GNDA	7.00704e-16	$X=174.7775 $Y=140.1275
C15728	VDDA#1088	GNDA	7.70748e-16	$X=180.6825 $Y=138.9835
C15729	VDDA#1105	GNDA	5.21338e-16	$X=222.7885 $Y=45.1385
C15730	VDDA#1120	GNDA	2.19016e-16	$X=305.1515 $Y=22.1455
C15731	VDDA#1132	GNDA	2.66373e-16	$X=356.01 $Y=22.1455
C15732	VDDA#1140	GNDA	3.98054e-16	$X=378.1525 $Y=41.8355
C15733	VDDA#1141	GNDA	2.37992e-16	$X=378.154 $Y=45.9725
C15734	net13#44	GNDA	7.50224e-16	$X=31.362 $Y=48.3785
C15735	EN#25	GNDA	2.49784e-17	$X=92.367 $Y=67.1955
C15736	net30#324	GNDA	3.08684e-16	$X=180.1205 $Y=87.002
C15737	net14#137	GNDA	7.20582e-15	$X=140.69 $Y=40.1985
C15738	net5#172	GNDA	1.3145e-18	$X=306.804 $Y=8.432
C15739	net4#81	GNDA	9.86703e-18	$X=317.844 $Y=8.432
C15740	net3#45	GNDA	8.30306e-18	$X=327.104 $Y=8.432
C15741	net2#27	GNDA	9.61558e-18	$X=336.364 $Y=8.432
C15742	net1#18	GNDA	8.9418e-18	$X=345.624 $Y=8.432
C15743	net6#14	GNDA	1.47712e-17	$X=354.884 $Y=8.3945
C15744	EN#2	GNDA	1.49407e-16	$X=99.1845 $Y=66.7545
C15745	EN#4	GNDA	1.48656e-16	$X=97.4045 $Y=66.7545
C15746	EN#9	GNDA	1.21444e-16	$X=104.7895 $Y=66.7545
C15747	EN#11	GNDA	1.515e-16	$X=103.0095 $Y=66.7545
C15748	net9#215	GNDA	4.05637e-17	$X=98.302 $Y=55.645
C15749	VDDA#1556	GNDA	5.88494e-17	$X=202.6425 $Y=179.7725
C15750	VOUT#146	GNDA	1.57956e-15	$X=104.782 $Y=48.139
C15751	VDDA#1568	GNDA	5.17319e-17	$X=375.591 $Y=179.7725
*
*
.ENDS dac6b_amp_n2
*
