*
*
*
*                       LINUX           Fri Aug 23 11:02:17 2024
*
*
*
*  PROGRAM  advgen
*
*  Name           : advgen - Quantus - (64-bit)
*  Version        : 23.1.1-p051
*  Build Date     : Thu Feb 15 21:11:17 PST 2024
*
*  HSPICE LIBRARY
*
* GLOBAL_TEMPERATURE 27
*  OPERATING_TEMPERATURE 27
*  QRC_TECH_DIR /pkg/xfab2/XKIT/xh018/cadence/v9_0/QRC_pvs/v9_0_1/XH018_1143/QRC-Typ 
*
*!LENGTH_UNITS METERS
*
*
*

*
.SUBCKT del_test GNDD IN OUT VDDD
*
*
*  caps2d version: 10
*
*
*       TRANSISTOR CARDS
*
*
MXI1/Xinvr_1/MMN1	A#23	IN#2	GNDD#9	GNDD	ne3	L=3.5e-07
+ W=8e-07
+ AD=3.84e-13	AS=4.148e-13	PD=2.56e-06	PS=1.98e-06
+ NRD=0.311017	NRS=0.372666
MXI1/Xinvr_1/MMN1@1	A#30	IN#13	GNDD#9	GNDD	ne3	L=3.5e-07
+ W=8e-07
+ AD=2.16e-13	AS=4.148e-13	PD=1.34e-06	PS=1.98e-06
+ NRD=0.311017	NRS=0.275892
MXI1/Xinvr_1/MMN1@2	A#30	IN#24	GNDD#15	GNDD	ne3
+ L=3.5e-07	W=8e-07
+ AD=2.16e-13	AS=9.852e-13	PD=1.34e-06	PS=4.14e-06
+ NRD=0.311017	NRS=0.545139
MXI0/Xinvr_1/MMN1	OUT#2	A#4	GNDD#12	GNDD	ne3
+ L=3.5e-07	W=4.8e-07
+ AD=1.296e-13	AS=4.408e-13	PD=1.02e-06	PS=3.52e-06
+ NRD=0.340364	NRS=2.38593
MXI0/Xinvr_1/MMN1@1	OUT#2	A#5	GNDD#2	GNDD	ne3	L=3.5e-07
+ W=4.8e-07
+ AD=1.296e-13	AS=4.408e-13	PD=1.02e-06	PS=3.52e-06
+ NRD=0.340364	NRS=2.38593
MXI1/Xinvr_1/MMP1	A#25	IN#6	VDDD#9	VDDD	pe3	L=3.0057e-07
+ W=1.47006e-06
+ AD=2.54913e-13	AS=5.79287e-13	PD=1.86506e-06	PS=3.69506e-06
+ NRD=0.195656	NRS=0.253283
MXI1/Xinvr_1/MMP1@1	A#25	IN#9	VDDD#20	VDDD	pe3
+ L=3.0057e-07	W=1.47006e-06
+ AD=2.54913e-13	AS=2.83187e-13	PD=1.86506e-06	PS=1.86506e-06
+ NRD=0.190044	NRS=0.178044
MXI1/Xinvr_1/MMP1@2	A#18	IN#19	VDDD#20	VDDD	pe3
+ L=3.0057e-07	W=1.47006e-06
+ AD=2.54913e-13	AS=2.83187e-13	PD=1.86506e-06	PS=1.86506e-06
+ NRD=0.303372	NRS=0.18553
MXI1/Xinvr_1/MMP1@3	A#18	IN#26	VDDD#17	VDDD	pe3
+ L=3.0057e-07	W=1.47006e-06
+ AD=2.54913e-13	AS=1.48669e-12	PD=1.86506e-06	PS=5.27506e-06
+ NRD=0.285325	NRS=0.217483
MXI0/Xinvr_1/MMP1	OUT#6	A#11	VDDD#14	VDDD	pe3
+ L=3.0047e-07	W=1.45971e-06
+ AD=2.751e-13	AS=8.151e-13	PD=1.87971e-06	PS=4.50971e-06
+ NRD=0.19951	NRS=0.309742
MXI0/Xinvr_1/MMP1@1	OUT#6	A#8	VDDD#11	VDDD	pe3
+ L=3.0047e-07	W=1.45971e-06
+ AD=2.751e-13	AS=8.01e-13	PD=1.87971e-06	PS=4.48971e-06
+ NRD=0.195223	NRS=0.288229
*
*
*       RESISTOR AND CAP/DIODE CARDS
*
Rf1	IN#28	IN	0.314451	$MET1	$L=1.64025e-06	$W=3.6e-07
+ $X=-4.305 $Y=27.255
Rf4	A#17	A#20	0.206988	$MET1	$L=7.5475e-07	$W=2.7e-07
+ $X=-2.322 $Y=27.885
Rf7	A#20	A#24	0.371102	$MET1	$L=1.33025e-06	$W=2.7e-07
+ $X=-3.3645 $Y=26.66
Rf8	A#20	A#26	0.172898	$MET1	$L=6.3525e-07	$W=2.7e-07
+ $X=-3.017 $Y=27.885
Rf10	A#20	A#28	1100.757202	$MET1	$L=0.00300238	$W=2.1e-07
+ $X=1498.49 $Y=27.285
Rf11	A#28	A#29	0.149877	$MET1	$L=8.3975e-07	$W=3.6e-07
+ $X=3000.015 $Y=27.255
Rf12	A#20	A#31	0.177043	$MET1	$L=6.4975e-07	$W=2.7e-07
+ $X=-2.3745 $Y=26.66
Rf17	OUT#1	OUT#5	0.355272	$MET1	$L=1.235e-06	$W=2.6e-07
+ $X=3000.94 $Y=26.66
Rf19	OUT#5	OUT	0.459966	$MET1	$L=1.7625e-06	$W=2.9e-07
+ $X=3001.8215 $Y=27.895
Rf25	VDDD#1	VDDD	11.551697	$MET1	$L=0.00299744	$W=1.998e-05
+ $X=1500.82 $Y=44.175
Rf30	VDDD	VDDD#10	2.984741	$MET1	$L=1.327e-05
+ $W=3.2e-07	$X=-4.03 $Y=35.48
Rf31	VDDD#1	VDDD#12	2.194288	$MET1	$L=1.309e-05
+ $W=2.7e-07	$X=3001.545 $Y=35.51
Rf33	VDDD#1	VDDD#15	0.666572	$MET1	$L=1.309e-05
+ $W=2.75e-07	$X=3000.425 $Y=35.51
Rf35	VDDD	VDDD#18	3.495092	$MET1	$L=1.313e-05
+ $W=2.7e-07	$X=-1.275 $Y=35.49
Rf37	VDDD	VDDD#21	2.984741	$MET1	$L=1.327e-05
+ $W=3.2e-07	$X=-2.64 $Y=35.48
Rf40	GNDD#1	GNDD#4	2.069304	$MET1	$L=1.24525e-05	$W=2.7e-07
+ $X=3001.4875 $Y=25.835
Rf43	GNDD#4	GNDD	11.543757	$MET1	$L=0.00299538	$W=1.998e-05
+ $X=1501.85 $Y=11.49
Rf46	GNDD	GNDD#10	2.875044	$MET1	$L=1.28425e-05
+ $W=3.2e-07	$X=-2.98 $Y=19.7185
Rf48	GNDD#4	GNDD#13	0.612234	$MET1	$L=1.24525e-05
+ $W=2.7e-07	$X=3000.425 $Y=19.6085
Rf50	GNDD	GNDD#16	0.563822	$MET1	$L=1.27225e-05
+ $W=2.7e-07	$X=-1.635 $Y=19.7435
Rg1	IN#1	IN#2	12.236842	$POLY1	$L=6.2e-07	$W=3.8e-07
+ $X=-3.585 $Y=26.135
Rg2	IN#2	IN#3	16.342106	$POLY1	$L=8.1e-07	$W=3.8e-07
+ $X=-3.5775 $Y=26.445
Rg3	IN#3	IN#4	5.809524	$POLY1	$L=3.35e-07	$W=4.5e-07
+ $X=-3.7375 $Y=27.255
Rg4	IN#3	IN#5	20.758783	$POLY1	$L=9.2025e-07	$W=3.3e-07
+ $X=-3.626 $Y=27.255
Rg5	IN#5	IN#6	4.143361	$POLY1	$L=2.3475e-07	$W=4.75e-07
+ $X=-3.682 $Y=28.175
Rg6	IN#3	IN#7	9.995536	$POLY1	$L=5.8275e-07	$W=4.5e-07
+ $X=-3.2785 $Y=27.255
Rg7	IN#7	IN#8	21.322500	$POLY1	$L=9.2e-07	$W=3.3e-07
+ $X=-2.987 $Y=27.255
Rg8	IN#8	IN#9	4.143361	$POLY1	$L=2.3475e-07	$W=4.75e-07
+ $X=-2.987 $Y=28.175
Rg9	IN#6	IN#10	1.064414	$POLY1	$L=3.975e-08	$W=4.75e-07
+ $X=-3.6825 $Y=28.4295
Rg10	IN#10	IN#11	20.106487	$POLY1	$L=8.8525e-07	$W=3.3e-07
+ $X=-3.646 $Y=28.4495
Rg11	IN#7	IN#12	6.767857	$POLY1	$L=3.95e-07	$W=4.5e-07
+ $X=-2.7895 $Y=27.255
Rg12	IN#12	IN#13	17.575851	$POLY1	$L=8.1025e-07	$W=3.8e-07
+ $X=-2.5435 $Y=27.255
Rg13	IN#13	IN#14	12.236842	$POLY1	$L=6.2e-07	$W=3.8e-07
+ $X=-2.495 $Y=26.445
Rg14	IN#9	IN#15	1.064414	$POLY1	$L=3.975e-08	$W=4.75e-07
+ $X=-2.9875 $Y=28.4295
Rg15	IN#15	IN#16	20.106487	$POLY1	$L=8.8525e-07	$W=3.3e-07
+ $X=-3.0235 $Y=28.4495
Rg16	IN#12	IN#17	2.678571	$POLY1	$L=1.5e-07	$W=4.5e-07
+ $X=-2.517 $Y=27.255
Rg17	IN#17	IN#18	30.297873	$POLY1	$L=1.0575e-06	$W=3.3e-07
+ $X=-2.442 $Y=27.255
Rg18	IN#18	IN#19	5.846647	$POLY1	$L=1.79677e-07	$W=3.05e-07
+ $X=-2.367 $Y=28.3125
Rg19	IN#19	IN#20	5.873919	$POLY1	$L=1.80384e-07	$W=3.05e-07
+ $X=-2.217 $Y=28.3125
Rg20	IN#20	IN#21	28.846897	$POLY1	$L=1.02225e-06	$W=3.3e-07
+ $X=-2.181 $Y=28.3295
Rg21	IN#17	IN#22	15.552083	$POLY1	$L=9.1725e-07	$W=4.5e-07
+ $X=-1.9835 $Y=27.255
Rg22	IN#22	IN#23	4.479637	$POLY1	$L=2.1025e-07	$W=3.8e-07
+ $X=-1.525 $Y=27.1495
Rg23	IN#23	IN#24	12.422985	$POLY1	$L=5.9975e-07	$W=3.8e-07
+ $X=-1.6045 $Y=27.0445
Rg24	IN#24	IN#25	12.236842	$POLY1	$L=6.2e-07	$W=3.8e-07
+ $X=-1.605 $Y=26.445
Rg25	IN#22	IN#26	25.803251	$POLY1	$L=1.155e-06	$W=3.3e-07
+ $X=-1.561 $Y=27.255
Rg26	IN#26	IN#27	21.440214	$POLY1	$L=9.25e-07	$W=3.3e-07
+ $X=-1.67 $Y=28.872
Rg27	A	A#2	4.269345	$POLY1	$L=2.4975e-07	$W=4.5e-07
+ $X=3001.155 $Y=27.255
Rg28	A#2	A#3	11.694941	$POLY1	$L=6.8025e-07	$W=4.5e-07
+ $X=3000.69 $Y=27.255
Rg29	A#3	A#4	13.387445	$POLY1	$L=6.5e-07	$W=3.8e-07
+ $X=3000.2825 $Y=27.255
Rg30	A#2	A#5	13.183499	$POLY1	$L=6.5025e-07	$W=3.8e-07
+ $X=3001.0675 $Y=27.255
Rg31	A#5	A#6	9.078948	$POLY1	$L=4.6e-07	$W=3.8e-07
+ $X=3001.105 $Y=26.605
Rg32	A#2	A#7	20.874294	$POLY1	$L=9.2e-07	$W=3.3e-07
+ $X=3001.03 $Y=27.255
Rg33	A#7	A#8	4.238802	$POLY1	$L=2.3475e-07	$W=4.5e-07
+ $X=3001.03 $Y=28.175
Rg34	A#3	A#9	5.321429	$POLY1	$L=3.1e-07	$W=4.5e-07
+ $X=3000.195 $Y=27.255
Rg35	A#3	A#10	20.552671	$POLY1	$L=9.2025e-07	$W=3.3e-07
+ $X=3000.33 $Y=27.255
Rg36	A#10	A#11	4.238802	$POLY1	$L=2.3475e-07	$W=4.5e-07
+ $X=3000.31 $Y=28.175
Rg37	A#4	A#12	9.078948	$POLY1	$L=4.6e-07	$W=3.8e-07
+ $X=3000.215 $Y=26.605
Rg38	A#8	A#13	0.572135	$POLY1	$L=1.475e-08	$W=4.5e-07
+ $X=3001.03 $Y=28.417
Rg39	A#13	A#14	20.674919	$POLY1	$L=9.1025e-07	$W=3.3e-07
+ $X=3001 $Y=28.4245
Rg40	A#11	A#15	0.572135	$POLY1	$L=1.475e-08	$W=4.5e-07
+ $X=3000.31 $Y=28.417
Rg41	A#15	A#16	20.674919	$POLY1	$L=9.1025e-07	$W=3.3e-07
+ $X=3000.34 $Y=28.4245
Rcb1	A#23	A#24	7.500000	$cont	$L=2.2e-07	$W=2.2e-07
+ $A=4.84e-14	$N=1.0000	$X=-4.03 $Y=26.635
Rcb2	A#30	A#31	7.500000	$cont	$L=2.2e-07	$W=2.2e-07
+ $A=4.84e-14	$N=1.0000	$X=-2.05 $Y=26.635
Rcb3	OUT#2	OUT#1	7.500000	$cont	$L=2.2e-07	$W=2.2e-07
+ $A=4.84e-14	$N=1.0000	$X=3000.66 $Y=26.635
Rcb4	GNDD#2	GNDD#1	7.500000	$cont	$L=2.2e-07	$W=2.2e-07
+ $A=4.84e-14	$N=1.0000	$X=3001.43 $Y=25.835
Rcb5	GNDD#9	GNDD#10	7.500000	$cont	$L=2.2e-07
+ $W=2.2e-07	$A=4.84e-14	$N=1.0000	$X=-2.98 $Y=26.055
Rcb6	GNDD#12	GNDD#13	7.500000	$cont	$L=2.2e-07
+ $W=2.2e-07	$A=4.84e-14	$N=1.0000	$X=2999.89 $Y=25.835
Rcb7	GNDD#15	GNDD#16	7.500000	$cont	$L=2.2e-07
+ $W=2.2e-07	$A=4.84e-14	$N=1.0000	$X=-0.81 $Y=26.105
Rcb_1_1	IN#3	IN#28	7.500000	$cont	$L=2.2e-07	$W=2.2e-07
+ $A=4.84e-14	$N=1.0000	$X=-3.57 $Y=27.255
Rcb_1_2	A#3	A#29	7.500000	$cont	$L=2.2e-07	$W=2.2e-07
+ $A=4.84e-14	$N=1.0000	$X=3000.35 $Y=27.255
Rcb_2_1	A#18	A#17	7.500000	$cont	$L=2.2e-07	$W=2.2e-07
+ $A=4.84e-14	$N=1.0000	$X=-1.945 $Y=27.915
Rcb_2_2	A#25	A#26	7.500000	$cont	$L=2.2e-07	$W=2.2e-07
+ $A=4.84e-14	$N=1.0000	$X=-3.335 $Y=27.915
Rcb_2_3	OUT#6	OUT#5	7.500000	$cont	$L=2.2e-07	$W=2.2e-07
+ $A=4.84e-14	$N=1.0000	$X=3000.67 $Y=27.935
Rcb_2_4	VDDD#9	VDDD#10	7.500000	$cont	$L=2.2e-07
+ $W=2.2e-07	$A=4.84e-14	$N=1.0000	$X=-4.03 $Y=28.905
Rcb_2_5	VDDD#11	VDDD#12	7.500000	$cont	$L=2.2e-07
+ $W=2.2e-07	$A=4.84e-14	$N=1.0000	$X=3001.43 $Y=28.965
Rcb_2_6	VDDD#14	VDDD#15	7.500000	$cont	$L=2.2e-07
+ $W=2.2e-07	$A=4.84e-14	$N=1.0000	$X=2999.9 $Y=28.965
Rcb_2_7	VDDD#17	VDDD#18	7.500000	$cont	$L=2.2e-07
+ $W=2.2e-07	$A=4.84e-14	$N=1.0000	$X=-1.25 $Y=28.925
Rcb_2_8	VDDD#20	VDDD#21	7.500000	$cont	$L=2.2e-07
+ $W=2.2e-07	$A=4.84e-14	$N=1.0000	$X=-2.64 $Y=28.905
*
*       CAP/DIODE CARDS
*
*
DX1/D7_unmatched	GNDD	VDDD	p_dnw3	1.50092e-11	1.584e-05 
+  perimeter=1.584e-05  model=dnw3
DX0/D4_unmatched	GNDD	VDDD	p_dnw3	9.734e-12	1.248e-05 
+  perimeter=1.248e-05  model=dnw3
*
*
*       CAPACITOR CARDS
*
*
C1	GNDD#10	GNDD#9	2.60606e-17	$X=-2.9895 $Y=26.0395
C2	GNDD#1	GNDD#2	2.77338e-17	$X=3001.4635 $Y=25.9155
C3	GNDD#13	GNDD#1	7.75575e-18	$X=3000.6605 $Y=25.8545
C4	GNDD	GNDD#15	1.23204e-17	$X=-0.964 $Y=26.2245
C5	GNDD	GNDD#9	3.92953e-18	$X=-3.039 $Y=26.2245
C6	GNDD#16	GNDD#15	2.45551e-17	$X=-0.8055 $Y=26.076
C7	GNDD#10	GNDD#16	6.93795e-18	$X=-1.7955 $Y=26.0335
C8	GNDD#1	GNDD	1.70878e-17	$X=3001.454 $Y=25.855
C9	GNDD#4	GNDD	9.15246e-13	$X=2224.371 $Y=12.151
C10	GNDD#13	GNDD#12	1.98727e-17	$X=2999.8555 $Y=25.915
C11	GNDD#10	GNDD	8.55954e-18	$X=-2.98 $Y=26.007
C12	GNDD#13	GNDD	1.71212e-17	$X=2999.8645 $Y=25.8545
C13	GNDD#16	GNDD	2.28096e-17	$X=-0.785 $Y=26.057
C14	GNDD#4	GNDD#2	1.46439e-18	$X=3001.498 $Y=26.224
C15	IN	GNDD	1.8476e-16	$X=-5.3145 $Y=27.2445
C16	OUT	GNDD	1.9092e-16	$X=3002.701 $Y=27.7295
C17	VDDD	GNDD	9.17901e-13	$X=1349.231 $Y=32.2645
C18	A#8	GNDD	2.04481e-17	$X=3001.029 $Y=28.3485
C19	A#11	GNDD	1.63937e-17	$X=3000.309 $Y=28.3485
C20	IN#26	GNDD	2.42764e-17	$X=-1.5975 $Y=28.355
C21	IN#9	GNDD	2.34454e-17	$X=-2.9875 $Y=28.355
C22	IN#6	GNDD	2.0782e-17	$X=-3.6825 $Y=28.355
C23	A#5	GNDD	5.65815e-18	$X=3001.1045 $Y=26.714
C24	A#4	GNDD	5.70733e-18	$X=3000.214 $Y=26.714
C25	IN#24	GNDD	6.96137e-18	$X=-1.605 $Y=26.594
C26	IN#13	GNDD	1.28346e-17	$X=-2.495 $Y=26.594
C27	VDDD#11	GNDD	1.0825e-17	$X=3001.438 $Y=28.584
C28	OUT#6	GNDD	5.64298e-19	$X=3000.6685 $Y=28.4095
C29	A#30	GNDD	2.99774e-22	$X=-2.0495 $Y=26.4445
C30	A#18	GNDD	5.42599e-19	$X=-1.9445 $Y=28.4095
C31	A#25	GNDD	4.96256e-19	$X=-3.3345 $Y=28.4095
C32	IN#28	GNDD	2.07129e-16	$X=-3.899 $Y=27.2545
C33	A#20	GNDD	1.24687e-13	$X=748.4175 $Y=27.2865
C34	A#17	GNDD	4.35598e-17	$X=-1.972 $Y=27.8845
C35	A#24	GNDD	1.62671e-16	$X=-3.8575 $Y=26.6595
C36	A#26	GNDD	6.53809e-17	$X=-3.3375 $Y=27.8845
C37	A#28	GNDD	1.24403e-13	$X=2248.8785 $Y=27.2865
C38	A#29	GNDD	1.13394e-16	$X=3000.219 $Y=27.2545
C39	A#31	GNDD	4.48647e-17	$X=-2.0525 $Y=26.6595
C40	OUT#5	GNDD	1.86426e-16	$X=3000.9385 $Y=27.6605
C41	OUT#1	GNDD	1.60941e-16	$X=3000.9385 $Y=26.8925
C42	VDDD#1	GNDD	9.15933e-13	$X=2223.8525 $Y=43.881
C43	VDDD#10	GNDD	3.71479e-17	$X=-4.03 $Y=29.0045
C44	VDDD#12	GNDD	4.23851e-17	$X=3001.454 $Y=29.012
C45	VDDD#15	GNDD	2.8061e-17	$X=2999.877 $Y=29.013
C46	VDDD#18	GNDD	3.75181e-17	$X=-1.275 $Y=28.982
C47	VDDD#21	GNDD	6.49608e-17	$X=-2.64 $Y=29.0045
C48	IN#4	GNDD	8.87492e-17	$X=-3.507 $Y=27.105
C49	IN#11	GNDD	6.06513e-17	$X=-3.61 $Y=29.113
C50	IN#7	GNDD	1.28715e-16	$X=-2.5915 $Y=27.1055
C51	IN#16	GNDD	6.06443e-17	$X=-3.06 $Y=29.113
C52	IN#18	GNDD	1.94103e-17	$X=-2.312 $Y=28.355
C53	IN#21	GNDD	5.63898e-17	$X=-2.22 $Y=29.113
C54	IN#27	GNDD	5.95181e-17	$X=-1.67 $Y=29.113
C55	IN#25	GNDD	6.45102e-17	$X=-1.605 $Y=26.133
C56	IN#14	GNDD	6.28657e-17	$X=-2.495 $Y=26.133
C57	IN#1	GNDD	8.37724e-17	$X=-3.585 $Y=26.2845
C58	IN#22	GNDD	1.39979e-16	$X=-1.552 $Y=27.2825
C59	A#16	GNDD	5.43337e-17	$X=3000.369 $Y=29.1065
C60	A#2	GNDD	1.02212e-16	$X=3001.0885 $Y=27.3225
C61	A#14	GNDD	5.93228e-17	$X=3000.969 $Y=29.1065
C62	A#6	GNDD	5.40538e-17	$X=3001.1045 $Y=26.373
C63	A#12	GNDD	5.70977e-17	$X=3000.214 $Y=26.373
C64	A#9	GNDD	1.03753e-16	$X=3000.2435 $Y=27.3225
*
*
.ENDS del_test
*
