*
*
*
*                       LINUX           Tue Aug 13 03:40:51 2024
*
*
*
*  PROGRAM  advgen
*
*  Name           : advgen - Quantus - (64-bit)
*  Version        : 23.1.0-p075
*  Build Date     : Tue Sep 26 09:11:43 PDT 2023
*
*  HSPICE LIBRARY
*
* GLOBAL_TEMPERATURE 27
*  OPERATING_TEMPERATURE 27
*  QRC_TECH_DIR /home/saul/pkg/xfab/XKIT/xh018/cadence/v9_0/QRC_pvs/v9_0_1/XH018_1143/QRC-Typ 
*
*!LENGTH_UNITS METERS
*
*
*
*
*       SUBCIRCUIT DEFINITIONS
*
.SUBCKT MOSVC3 G NW SB
.ENDS
*
.SUBCKT nedia D G S SB
.ENDS
*

*
.SUBCKT current_source_gm_10_en_r BIAS EN FB GNDA GNDHV IN OUT PACTIVE VDD3A
+ VDDHV VSUBHV
*
*
*  caps2d version: 10
*
*       SUBCIRCUIT CALLS
*
XXC0 VDD3A#13 GNDA GNDA MOSVC3
+ w=2e-05 l=3e-05 model=mosvc3
XXC0@2 VDD3A#6 GNDA GNDA MOSVC3
+ w=2e-05 l=3e-05 model=mosvc3
XXC0@1 VDD3A#27 GNDA GNDA MOSVC3
+ w=2e-05 l=3e-05 model=mosvc3
XXC0@3 VDD3A#20 GNDA GNDA MOSVC3
+ w=2e-05 l=3e-05 model=mosvc3
XMM0 OUT VA#15 FB VSUBHV nedia
+ w=0.0001 l=1.25e-06 adio=1.01941e-09 pdio=4.39938e-05 extlay=1
XMM0@3 OUT VA#29 FB VSUBHV nedia
+ w=0.0001 l=1.25e-06 adio=1.01941e-09 pdio=4.39938e-05 extlay=1
XMM0@6 OUT VA#43 FB VSUBHV nedia
+ w=0.0001 l=1.25e-06 adio=1.01941e-09 pdio=4.39938e-05 extlay=1
XMM0@1 OUT VA#57 FB VSUBHV nedia
+ w=0.0001 l=1.25e-06 adio=1.01941e-09 pdio=4.39938e-05 extlay=1
XMM0@2 OUT VA#71 FB VSUBHV nedia
+ w=0.0001 l=1.25e-06 adio=1.01941e-09 pdio=4.39938e-05 extlay=1
XMM0@7 OUT VA#85 FB VSUBHV nedia
+ w=0.0001 l=1.25e-06 adio=1.01941e-09 pdio=4.39938e-05 extlay=1
XMM0@4 OUT VA#99 FB VSUBHV nedia
+ w=0.0001 l=1.25e-06 adio=1.01941e-09 pdio=4.39938e-05 extlay=1
XMM0@5 OUT VA#113 FB VSUBHV nedia
+ w=0.0001 l=1.25e-06 adio=1.01941e-09 pdio=4.39938e-05 extlay=1
XMM1 VA VB#15 GNDHV VSUBHV nedia
+ w=5e-05 l=1.25e-06 adio=1.08602e-09 pdio=0.00013535 extlay=1
*
*       TRANSISTOR CARDS
*
*
MMM34	net13#20	PACTIVE#2	GNDA#320	GNDA	ne3
+ L=3.5e-07	W=2e-06
+ AD=9.6e-13	AS=9.6e-13	PD=4.96e-06	PS=4.96e-06
+ NRD=0.0865	NRS=0.0865
MMM25	net16#20	EN#2	GNDA#322	GNDA	ne3	L=3.5e-07
+ W=2e-06
+ AD=9.6e-13	AS=9.6e-13	PD=4.96e-06	PS=4.96e-06
+ NRD=0.0865	NRS=0.0865
MMM2@1	net9#126	net7#8	GNDA#195	GNDA	ne3	L=1e-06
+ W=5e-06
+ AD=2.4e-12	AS=2.4e-12	PD=1.096e-05	PS=1.096e-05
+ NRD=0.0346	NRS=0.0346
MMM4@1	net7#122	net7#11	GNDA#201	GNDA	ne3	L=1e-06
+ W=5e-06
+ AD=2.4e-12	AS=2.4e-12	PD=1.096e-05	PS=1.096e-05
+ NRD=0.0346	NRS=0.0346
MMM4	net7#110	net7#2	GNDA#183	GNDA	ne3	L=1e-06
+ W=5e-06
+ AD=2.4e-12	AS=2.4e-12	PD=1.096e-05	PS=1.096e-05
+ NRD=0.0346	NRS=0.0346
MMM2	net9#120	net7#5	GNDA#189	GNDA	ne3	L=1e-06
+ W=5e-06
+ AD=2.4e-12	AS=2.4e-12	PD=1.096e-05	PS=1.096e-05
+ NRD=0.0346	NRS=0.0346
MMM27	GNDA#77	GNDA#9	GNDA#84	GNDA	ne3	L=1e-05
+ W=1e-05
+ AD=4.8e-12	AS=4.8e-12	PD=2.096e-05	PS=2.096e-05
+ NRD=0.0173	NRS=0.0173
MMM27@3	GNDA#98	GNDA#16	GNDA#91	GNDA	ne3	L=1e-05
+ W=1e-05
+ AD=4.8e-12	AS=4.8e-12	PD=2.096e-05	PS=2.096e-05
+ NRD=0.0173	NRS=0.0173
MMM21@1	net14#15	net12#17	GNDA#67	GNDA	ne3	L=1e-05
+ W=1e-05
+ AD=4.8e-12	AS=4.8e-12	PD=2.096e-05	PS=2.096e-05
+ NRD=0.0173	NRS=0.0173
MMM21	net14#20	net12#24	GNDA#72	GNDA	ne3	L=1e-05
+ W=1e-05
+ AD=4.8e-12	AS=4.8e-12	PD=2.096e-05	PS=2.096e-05
+ NRD=0.0173	NRS=0.0173
MMM14	net12#67	net12#9	GNDA#57	GNDA	ne3	L=1e-05
+ W=1e-05
+ AD=4.8e-12	AS=4.8e-12	PD=2.096e-05	PS=2.096e-05
+ NRD=0.0173	NRS=0.0173
MMM14@1	net12#72	net12#16	GNDA#62	GNDA	ne3	L=1e-05
+ W=1e-05
+ AD=4.8e-12	AS=4.8e-12	PD=2.096e-05	PS=2.096e-05
+ NRD=0.0173	NRS=0.0173
MMM13@1	net5#3	net12	GNDA#47	GNDA	ne3	L=1e-05	W=1e-05
+ AD=4.8e-12	AS=4.8e-12	PD=2.096e-05	PS=2.096e-05
+ NRD=0.0173	NRS=0.0173
MMM13	net5#8	net12#8	GNDA#52	GNDA	ne3	L=1e-05
+ W=1e-05
+ AD=4.8e-12	AS=4.8e-12	PD=2.096e-05	PS=2.096e-05
+ NRD=0.0173	NRS=0.0173
MMM27@1	GNDA#19	GNDA#1	GNDA#26	GNDA	ne3	L=1e-05
+ W=1e-05
+ AD=4.8e-12	AS=4.8e-12	PD=2.096e-05	PS=2.096e-05
+ NRD=0.0173	NRS=0.0173
MMM27@2	GNDA#40	GNDA#8	GNDA#33	GNDA	ne3	L=1e-05
+ W=1e-05
+ AD=4.8e-12	AS=4.8e-12	PD=2.096e-05	PS=2.096e-05
+ NRD=0.0173	NRS=0.0173
MMM19@1	net4#82	BIAS#16	net5#14	GNDA	ne3	L=1e-05
+ W=1e-05
+ AD=2.7e-12	AS=4.8e-12	PD=1.054e-05	PS=2.096e-05
+ NRD=0.0173	NRS=0.0173
MMM19	net4#82	BIAS#20	net5#20	GNDA	ne3	L=1e-05
+ W=1e-05
+ AD=2.7e-12	AS=4.8e-12	PD=1.054e-05	PS=2.096e-05
+ NRD=0.0173	NRS=0.0173
MMM22@1	net15#19	BIAS#9	net14#4	GNDA	ne3	L=1e-05
+ W=1e-05
+ AD=2.7e-12	AS=4.8e-12	PD=1.054e-05	PS=2.096e-05
+ NRD=0.0173	NRS=0.0173
MMM22	net15#19	BIAS#13	net14#10	GNDA	ne3	L=1e-05
+ W=1e-05
+ AD=2.7e-12	AS=4.8e-12	PD=1.054e-05	PS=2.096e-05
+ NRD=0.0173	NRS=0.0173
MMM18	BIAS#25	BIAS#2	net12#28	GNDA	ne3	L=1e-05
+ W=1e-05
+ AD=2.7e-12	AS=4.8e-12	PD=1.054e-05	PS=2.096e-05
+ NRD=0.0173	NRS=0.0173
MMM18@1	BIAS#25	BIAS#6	net12#44	GNDA	ne3	L=1e-05
+ W=1e-05
+ AD=2.7e-12	AS=4.8e-12	PD=1.054e-05	PS=2.096e-05
+ NRD=0.0173	NRS=0.0173
MMM32@1	net9#13	net13#2	GNDA#312	GNDA	ne3
+ L=3.5e-07	W=5e-06
+ AD=1.35e-12	AS=2.4e-12	PD=5.54e-06	PS=1.096e-05
+ NRD=0.0346	NRS=0.0346
MMM32@2	net9#13	net13#5	GNDA#310	GNDA	ne3
+ L=3.5e-07	W=5e-06
+ AD=1.35e-12	AS=1.35e-12	PD=5.54e-06	PS=5.54e-06
+ NRD=0.0346	NRS=0.0346
MMM32	net9#13	net13#9	GNDA#310	GNDA	ne3
+ L=3.5e-07	W=5e-06
+ AD=1.35e-12	AS=1.35e-12	PD=5.54e-06	PS=5.54e-06
+ NRD=0.0346	NRS=0.0346
MMM32@3	net9#13	net13#12	GNDA#308	GNDA	ne3
+ L=3.5e-07	W=5e-06
+ AD=1.35e-12	AS=2.4e-12	PD=5.54e-06	PS=1.096e-05
+ NRD=0.0346	NRS=0.0346
MMM24@2	net12#25	net16#2	GNDA#318	GNDA	ne3
+ L=3.5e-07	W=5e-06
+ AD=1.35e-12	AS=2.4e-12	PD=5.54e-06	PS=1.096e-05
+ NRD=0.0346	NRS=0.0346
MMM24	net12#25	net16#5	GNDA#316	GNDA	ne3
+ L=3.5e-07	W=5e-06
+ AD=1.35e-12	AS=1.35e-12	PD=5.54e-06	PS=5.54e-06
+ NRD=0.0346	NRS=0.0346
MMM24@3	net12#25	net16#9	GNDA#316	GNDA	ne3
+ L=3.5e-07	W=5e-06
+ AD=1.35e-12	AS=1.35e-12	PD=5.54e-06	PS=5.54e-06
+ NRD=0.0346	NRS=0.0346
MMM24@1	net12#25	net16#12	GNDA#314	GNDA	ne3
+ L=3.5e-07	W=5e-06
+ AD=1.35e-12	AS=2.4e-12	PD=5.54e-06	PS=1.096e-05
+ NRD=0.0346	NRS=0.0346
MMM6@1	VB#41	net9#2	GNDA#207	GNDA	ne3	L=5e-07	W=5e-06
+ AD=1.35e-12	AS=2.4e-12	PD=5.54e-06	PS=1.096e-05
+ NRD=0.0346	NRS=0.0346
MMM6@3	VB#41	net9#5	GNDA#211	GNDA	ne3	L=5e-07	W=5e-06
+ AD=1.35e-12	AS=1.35e-12	PD=5.54e-06	PS=5.54e-06
+ NRD=0.0346	NRS=0.0346
MMM6	VB#45	net9#8	GNDA#211	GNDA	ne3	L=5e-07	W=5e-06
+ AD=1.35e-12	AS=1.35e-12	PD=5.54e-06	PS=5.54e-06
+ NRD=0.0346	NRS=0.0346
MMM6@2	VB#45	net9#11	GNDA#215	GNDA	ne3	L=5e-07
+ W=5e-06
+ AD=1.35e-12	AS=2.4e-12	PD=5.54e-06	PS=1.096e-05
+ NRD=0.0346	NRS=0.0346
MMM8@1	GNDA#143	IN#29	net6#110	net6	pe3	L=5e-06
+ W=1e-05
+ AD=2.7e-12	AS=4.8e-12	PD=1.054e-05	PS=2.096e-05
+ NRD=0.0173	NRS=0.0173
MMM8	GNDA#143	IN#32	net6#131	net6	pe3	L=5e-06
+ W=1e-05
+ AD=2.7e-12	AS=2.7e-12	PD=1.054e-05	PS=1.054e-05
+ NRD=0.0173	NRS=0.0173
MMM8@11	GNDA#151	IN#35	net6#131	net6	pe3	L=5e-06
+ W=1e-05
+ AD=2.7e-12	AS=2.7e-12	PD=1.054e-05	PS=1.054e-05
+ NRD=0.0173	NRS=0.0173
MMM8@7	GNDA#151	IN#38	net6#141	net6	pe3	L=5e-06
+ W=1e-05
+ AD=2.7e-12	AS=2.7e-12	PD=1.054e-05	PS=1.054e-05
+ NRD=0.0173	NRS=0.0173
MMM8@12	GNDA#159	IN#41	net6#141	net6	pe3	L=5e-06
+ W=1e-05
+ AD=2.7e-12	AS=2.7e-12	PD=1.054e-05	PS=1.054e-05
+ NRD=0.0173	NRS=0.0173
MMM8@8	GNDA#159	IN#44	net6#157	net6	pe3	L=5e-06
+ W=1e-05
+ AD=2.7e-12	AS=2.7e-12	PD=1.054e-05	PS=1.054e-05
+ NRD=0.0173	NRS=0.0173
MMM8@6	GNDA#167	IN#47	net6#157	net6	pe3	L=5e-06
+ W=1e-05
+ AD=2.7e-12	AS=2.7e-12	PD=1.054e-05	PS=1.054e-05
+ NRD=0.0173	NRS=0.0173
MMM8@10	GNDA#167	IN#50	net6#173	net6	pe3	L=5e-06
+ W=1e-05
+ AD=2.7e-12	AS=2.7e-12	PD=1.054e-05	PS=1.054e-05
+ NRD=0.0173	NRS=0.0173
MMM8@3	GNDA#175	IN#53	net6#173	net6	pe3	L=5e-06
+ W=1e-05
+ AD=4.8e-12	AS=2.7e-12	PD=2.096e-05	PS=1.054e-05
+ NRD=0.0173	NRS=0.0173
MMM7@3	GNDA#147	net1#29	net10#110	net10	pe3	L=5e-06
+ W=1e-05
+ AD=2.7e-12	AS=4.8e-12	PD=1.054e-05	PS=2.096e-05
+ NRD=0.0173	NRS=0.0173
MMM7@11	GNDA#147	net1#32	net10#131	net10	pe3	L=5e-06
+ W=1e-05
+ AD=2.7e-12	AS=2.7e-12	PD=1.054e-05	PS=1.054e-05
+ NRD=0.0173	NRS=0.0173
MMM7@10	GNDA#155	net1#35	net10#131	net10	pe3	L=5e-06
+ W=1e-05
+ AD=2.7e-12	AS=2.7e-12	PD=1.054e-05	PS=1.054e-05
+ NRD=0.0173	NRS=0.0173
MMM7@2	GNDA#155	net1#38	net10#141	net10	pe3	L=5e-06
+ W=1e-05
+ AD=2.7e-12	AS=2.7e-12	PD=1.054e-05	PS=1.054e-05
+ NRD=0.0173	NRS=0.0173
MMM7@14	GNDA#163	net1#41	net10#141	net10	pe3	L=5e-06
+ W=1e-05
+ AD=2.7e-12	AS=2.7e-12	PD=1.054e-05	PS=1.054e-05
+ NRD=0.0173	NRS=0.0173
MMM7@17	GNDA#163	net1#44	net10#157	net10	pe3	L=5e-06
+ W=1e-05
+ AD=2.7e-12	AS=2.7e-12	PD=1.054e-05	PS=1.054e-05
+ NRD=0.0173	NRS=0.0173
MMM7@16	GNDA#171	net1#47	net10#157	net10	pe3	L=5e-06
+ W=1e-05
+ AD=2.7e-12	AS=2.7e-12	PD=1.054e-05	PS=1.054e-05
+ NRD=0.0173	NRS=0.0173
MMM7@12	GNDA#171	net1#50	net10#173	net10	pe3	L=5e-06
+ W=1e-05
+ AD=2.7e-12	AS=2.7e-12	PD=1.054e-05	PS=1.054e-05
+ NRD=0.0173	NRS=0.0173
MMM7@4	GNDA#179	net1#53	net10#173	net10	pe3	L=5e-06
+ W=1e-05
+ AD=4.8e-12	AS=2.7e-12	PD=2.096e-05	PS=1.054e-05
+ NRD=0.0173	NRS=0.0173
MMM7@1	GNDA#103	net1#2	net10#43	net10	pe3	L=5e-06
+ W=1e-05
+ AD=2.7e-12	AS=4.8e-12	PD=1.054e-05	PS=2.096e-05
+ NRD=0.0173	NRS=0.0173
MMM7@15	GNDA#103	net1#5	net10#47	net10	pe3	L=5e-06
+ W=1e-05
+ AD=2.7e-12	AS=2.7e-12	PD=1.054e-05	PS=1.054e-05
+ NRD=0.0173	NRS=0.0173
MMM7@6	GNDA#111	net1#8	net10#47	net10	pe3	L=5e-06
+ W=1e-05
+ AD=2.7e-12	AS=2.7e-12	PD=1.054e-05	PS=1.054e-05
+ NRD=0.0173	NRS=0.0173
MMM7@9	GNDA#111	net1#11	net10#63	net10	pe3	L=5e-06
+ W=1e-05
+ AD=2.7e-12	AS=2.7e-12	PD=1.054e-05	PS=1.054e-05
+ NRD=0.0173	NRS=0.0173
MMM7@8	GNDA#119	net1#14	net10#63	net10	pe3	L=5e-06
+ W=1e-05
+ AD=2.7e-12	AS=2.7e-12	PD=1.054e-05	PS=1.054e-05
+ NRD=0.0173	NRS=0.0173
MMM7@7	GNDA#119	net1#17	net10#79	net10	pe3	L=5e-06
+ W=1e-05
+ AD=2.7e-12	AS=2.7e-12	PD=1.054e-05	PS=1.054e-05
+ NRD=0.0173	NRS=0.0173
MMM7	GNDA#127	net1#20	net10#79	net10	pe3	L=5e-06
+ W=1e-05
+ AD=2.7e-12	AS=2.7e-12	PD=1.054e-05	PS=1.054e-05
+ NRD=0.0173	NRS=0.0173
MMM7@5	GNDA#127	net1#23	net10#89	net10	pe3	L=5e-06
+ W=1e-05
+ AD=2.7e-12	AS=2.7e-12	PD=1.054e-05	PS=1.054e-05
+ NRD=0.0173	NRS=0.0173
MMM7@13	GNDA#135	net1#26	net10#89	net10	pe3	L=5e-06
+ W=1e-05
+ AD=4.8e-12	AS=2.7e-12	PD=2.096e-05	PS=1.054e-05
+ NRD=0.0173	NRS=0.0173
MMM8@4	GNDA#107	IN#2	net6#43	net6	pe3	L=5e-06
+ W=1e-05
+ AD=2.7e-12	AS=4.8e-12	PD=1.054e-05	PS=2.096e-05
+ NRD=0.0173	NRS=0.0173
MMM8@9	GNDA#107	IN#5	net6#47	net6	pe3	L=5e-06
+ W=1e-05
+ AD=2.7e-12	AS=2.7e-12	PD=1.054e-05	PS=1.054e-05
+ NRD=0.0173	NRS=0.0173
MMM8@14	GNDA#115	IN#8	net6#47	net6	pe3	L=5e-06
+ W=1e-05
+ AD=2.7e-12	AS=2.7e-12	PD=1.054e-05	PS=1.054e-05
+ NRD=0.0173	NRS=0.0173
MMM8@2	GNDA#115	IN#11	net6#63	net6	pe3	L=5e-06
+ W=1e-05
+ AD=2.7e-12	AS=2.7e-12	PD=1.054e-05	PS=1.054e-05
+ NRD=0.0173	NRS=0.0173
MMM8@15	GNDA#123	IN#14	net6#63	net6	pe3	L=5e-06
+ W=1e-05
+ AD=2.7e-12	AS=2.7e-12	PD=1.054e-05	PS=1.054e-05
+ NRD=0.0173	NRS=0.0173
MMM8@17	GNDA#123	IN#17	net6#79	net6	pe3	L=5e-06
+ W=1e-05
+ AD=2.7e-12	AS=2.7e-12	PD=1.054e-05	PS=1.054e-05
+ NRD=0.0173	NRS=0.0173
MMM8@13	GNDA#131	IN#20	net6#79	net6	pe3	L=5e-06
+ W=1e-05
+ AD=2.7e-12	AS=2.7e-12	PD=1.054e-05	PS=1.054e-05
+ NRD=0.0173	NRS=0.0173
MMM8@16	GNDA#131	IN#23	net6#89	net6	pe3	L=5e-06
+ W=1e-05
+ AD=2.7e-12	AS=2.7e-12	PD=1.054e-05	PS=1.054e-05
+ NRD=0.0173	NRS=0.0173
MMM8@5	GNDA#139	IN#26	net6#89	net6	pe3	L=5e-06
+ W=1e-05
+ AD=4.8e-12	AS=2.7e-12	PD=2.096e-05	PS=1.054e-05
+ NRD=0.0173	NRS=0.0173
MMM29@3	VDD3A#391	VDD3A#48	VDD3A#385	VDD3A	pe3	L=5e-06
+ W=1e-05
+ AD=4.8e-12	AS=4.8e-12	PD=2.096e-05	PS=2.096e-05
+ NRD=0.0173	NRS=0.0173
MMM30@2	VDD3A#379	VDD3A#51	VDD3A#373	VDD3A	pe3	L=5e-06
+ W=1e-05
+ AD=4.8e-12	AS=4.8e-12	PD=2.096e-05	PS=2.096e-05
+ NRD=0.0173	NRS=0.0173
MMM29@1	VDD3A#292	VDD3A#42	VDD3A#298	VDD3A	pe3	L=5e-06
+ W=1e-05
+ AD=4.8e-12	AS=4.8e-12	PD=2.096e-05	PS=2.096e-05
+ NRD=0.0173	NRS=0.0173
MMM30	VDD3A#311	VDD3A#45	VDD3A#305	VDD3A	pe3	L=5e-06
+ W=1e-05
+ AD=4.8e-12	AS=4.8e-12	PD=2.096e-05	PS=2.096e-05
+ NRD=0.0173	NRS=0.0173
MMM5@9	net9#114	net10#41	net8#273	VDD3A	pe3	L=5e-06
+ W=1e-05
+ AD=4.8e-12	AS=4.8e-12	PD=2.096e-05	PS=2.096e-05
+ NRD=0.0173	NRS=0.0173
MMM3	net7#104	net6#41	net8#280	VDD3A	pe3	L=5e-06
+ W=1e-05
+ AD=4.8e-12	AS=4.8e-12	PD=2.096e-05	PS=2.096e-05
+ NRD=0.0173	NRS=0.0173
MMM10@15	net8#289	net4#74	VDD3A#282	VDD3A	pe3
+ L=5e-06	W=1e-05
+ AD=4.8e-12	AS=4.8e-12	PD=2.096e-05	PS=2.096e-05
+ NRD=0.0173	NRS=0.0173
MMM10@13	net8#294	net4#77	VDD3A#287	VDD3A	pe3
+ L=5e-06	W=1e-05
+ AD=4.8e-12	AS=4.8e-12	PD=2.096e-05	PS=2.096e-05
+ NRD=0.0173	NRS=0.0173
MMM3@7	net7#97	net6#38	net8#249	VDD3A	pe3	L=5e-06
+ W=1e-05
+ AD=4.8e-12	AS=4.8e-12	PD=2.096e-05	PS=2.096e-05
+ NRD=0.0173	NRS=0.0173
MMM5@4	net9#107	net10#38	net8#256	VDD3A	pe3	L=5e-06
+ W=1e-05
+ AD=4.8e-12	AS=4.8e-12	PD=2.096e-05	PS=2.096e-05
+ NRD=0.0173	NRS=0.0173
MMM10@10	net8#265	net4#68	VDD3A#272	VDD3A	pe3
+ L=5e-06	W=1e-05
+ AD=4.8e-12	AS=4.8e-12	PD=2.096e-05	PS=2.096e-05
+ NRD=0.0173	NRS=0.0173
MMM10@14	net8#270	net4#71	VDD3A#277	VDD3A	pe3
+ L=5e-06	W=1e-05
+ AD=4.8e-12	AS=4.8e-12	PD=2.096e-05	PS=2.096e-05
+ NRD=0.0173	NRS=0.0173
MMM5@11	net9#100	net10#35	net8#225	VDD3A	pe3	L=5e-06
+ W=1e-05
+ AD=4.8e-12	AS=4.8e-12	PD=2.096e-05	PS=2.096e-05
+ NRD=0.0173	NRS=0.0173
MMM3@13	net7#90	net6#35	net8#232	VDD3A	pe3	L=5e-06
+ W=1e-05
+ AD=4.8e-12	AS=4.8e-12	PD=2.096e-05	PS=2.096e-05
+ NRD=0.0173	NRS=0.0173
MMM10@12	net8#241	net4#62	VDD3A#262	VDD3A	pe3
+ L=5e-06	W=1e-05
+ AD=4.8e-12	AS=4.8e-12	PD=2.096e-05	PS=2.096e-05
+ NRD=0.0173	NRS=0.0173
MMM10@17	net8#246	net4#65	VDD3A#267	VDD3A	pe3
+ L=5e-06	W=1e-05
+ AD=4.8e-12	AS=4.8e-12	PD=2.096e-05	PS=2.096e-05
+ NRD=0.0173	NRS=0.0173
MMM3@9	net7#83	net6#32	net8#201	VDD3A	pe3	L=5e-06
+ W=1e-05
+ AD=4.8e-12	AS=4.8e-12	PD=2.096e-05	PS=2.096e-05
+ NRD=0.0173	NRS=0.0173
MMM5@12	net9#93	net10#32	net8#208	VDD3A	pe3	L=5e-06
+ W=1e-05
+ AD=4.8e-12	AS=4.8e-12	PD=2.096e-05	PS=2.096e-05
+ NRD=0.0173	NRS=0.0173
MMM10@18	net8#217	net4#56	VDD3A#252	VDD3A	pe3
+ L=5e-06	W=1e-05
+ AD=4.8e-12	AS=4.8e-12	PD=2.096e-05	PS=2.096e-05
+ NRD=0.0173	NRS=0.0173
MMM10@11	net8#222	net4#59	VDD3A#257	VDD3A	pe3
+ L=5e-06	W=1e-05
+ AD=4.8e-12	AS=4.8e-12	PD=2.096e-05	PS=2.096e-05
+ NRD=0.0173	NRS=0.0173
MMM5@3	net9#86	net10#29	net8#177	VDD3A	pe3	L=5e-06
+ W=1e-05
+ AD=4.8e-12	AS=4.8e-12	PD=2.096e-05	PS=2.096e-05
+ NRD=0.0173	NRS=0.0173
MMM3@5	net7#76	net6#29	net8#184	VDD3A	pe3	L=5e-06
+ W=1e-05
+ AD=4.8e-12	AS=4.8e-12	PD=2.096e-05	PS=2.096e-05
+ NRD=0.0173	NRS=0.0173
MMM10@19	net8#193	net4#50	VDD3A#242	VDD3A	pe3
+ L=5e-06	W=1e-05
+ AD=4.8e-12	AS=4.8e-12	PD=2.096e-05	PS=2.096e-05
+ NRD=0.0173	NRS=0.0173
MMM10	net8#198	net4#53	VDD3A#247	VDD3A	pe3	L=5e-06
+ W=1e-05
+ AD=4.8e-12	AS=4.8e-12	PD=2.096e-05	PS=2.096e-05
+ NRD=0.0173	NRS=0.0173
MMM3@4	net7#69	net6#26	net8#163	VDD3A	pe3	L=5e-06
+ W=1e-05
+ AD=4.8e-12	AS=4.8e-12	PD=2.096e-05	PS=2.096e-05
+ NRD=0.0173	NRS=0.0173
MMM5@2	net9#79	net10#26	net8#170	VDD3A	pe3	L=5e-06
+ W=1e-05
+ AD=4.8e-12	AS=4.8e-12	PD=2.096e-05	PS=2.096e-05
+ NRD=0.0173	NRS=0.0173
MMM11@1	net10#122	net4#44	VDD3A#232	VDD3A	pe3	L=5e-06
+ W=1e-05
+ AD=4.8e-12	AS=4.8e-12	PD=2.096e-05	PS=2.096e-05
+ NRD=0.0173	NRS=0.0173
MMM9@1	net6#122	net4#47	VDD3A#237	VDD3A	pe3	L=5e-06
+ W=1e-05
+ AD=4.8e-12	AS=4.8e-12	PD=2.096e-05	PS=2.096e-05
+ NRD=0.0173	NRS=0.0173
MMM5@7	net9#72	net10#23	net8#149	VDD3A	pe3	L=5e-06
+ W=1e-05
+ AD=4.8e-12	AS=4.8e-12	PD=2.096e-05	PS=2.096e-05
+ NRD=0.0173	NRS=0.0173
MMM3@3	net7#62	net6#23	net8#156	VDD3A	pe3	L=5e-06
+ W=1e-05
+ AD=4.8e-12	AS=4.8e-12	PD=2.096e-05	PS=2.096e-05
+ NRD=0.0173	NRS=0.0173
MMM12@1	net4#150	net4#38	VDD3A#222	VDD3A	pe3	L=5e-06
+ W=1e-05
+ AD=4.8e-12	AS=4.8e-12	PD=2.096e-05	PS=2.096e-05
+ NRD=0.0173	NRS=0.0173
MMM12	net4#155	net4#41	VDD3A#227	VDD3A	pe3	L=5e-06
+ W=1e-05
+ AD=4.8e-12	AS=4.8e-12	PD=2.096e-05	PS=2.096e-05
+ NRD=0.0173	NRS=0.0173
MMM3@11	net7#55	net6#20	net8#135	VDD3A	pe3	L=5e-06
+ W=1e-05
+ AD=4.8e-12	AS=4.8e-12	PD=2.096e-05	PS=2.096e-05
+ NRD=0.0173	NRS=0.0173
MMM5@6	net9#65	net10#20	net8#142	VDD3A	pe3	L=5e-06
+ W=1e-05
+ AD=4.8e-12	AS=4.8e-12	PD=2.096e-05	PS=2.096e-05
+ NRD=0.0173	NRS=0.0173
MMM9	net6#101	net4#32	VDD3A#212	VDD3A	pe3	L=5e-06
+ W=1e-05
+ AD=4.8e-12	AS=4.8e-12	PD=2.096e-05	PS=2.096e-05
+ NRD=0.0173	NRS=0.0173
MMM11	net10#101	net4#35	VDD3A#217	VDD3A	pe3	L=5e-06
+ W=1e-05
+ AD=4.8e-12	AS=4.8e-12	PD=2.096e-05	PS=2.096e-05
+ NRD=0.0173	NRS=0.0173
MMM5	net9#58	net10#17	net8#111	VDD3A	pe3	L=5e-06
+ W=1e-05
+ AD=4.8e-12	AS=4.8e-12	PD=2.096e-05	PS=2.096e-05
+ NRD=0.0173	NRS=0.0173
MMM3@2	net7#48	net6#17	net8#118	VDD3A	pe3	L=5e-06
+ W=1e-05
+ AD=4.8e-12	AS=4.8e-12	PD=2.096e-05	PS=2.096e-05
+ NRD=0.0173	NRS=0.0173
MMM10@5	net8#127	net4#26	VDD3A#202	VDD3A	pe3	L=5e-06
+ W=1e-05
+ AD=4.8e-12	AS=4.8e-12	PD=2.096e-05	PS=2.096e-05
+ NRD=0.0173	NRS=0.0173
MMM10@6	net8#132	net4#29	VDD3A#207	VDD3A	pe3	L=5e-06
+ W=1e-05
+ AD=4.8e-12	AS=4.8e-12	PD=2.096e-05	PS=2.096e-05
+ NRD=0.0173	NRS=0.0173
MMM3@1	net7#41	net6#14	net8#87	VDD3A	pe3	L=5e-06
+ W=1e-05
+ AD=4.8e-12	AS=4.8e-12	PD=2.096e-05	PS=2.096e-05
+ NRD=0.0173	NRS=0.0173
MMM5@13	net9#51	net10#14	net8#94	VDD3A	pe3	L=5e-06
+ W=1e-05
+ AD=4.8e-12	AS=4.8e-12	PD=2.096e-05	PS=2.096e-05
+ NRD=0.0173	NRS=0.0173
MMM10@3	net8#103	net4#20	VDD3A#192	VDD3A	pe3	L=5e-06
+ W=1e-05
+ AD=4.8e-12	AS=4.8e-12	PD=2.096e-05	PS=2.096e-05
+ NRD=0.0173	NRS=0.0173
MMM10@1	net8#108	net4#23	VDD3A#197	VDD3A	pe3	L=5e-06
+ W=1e-05
+ AD=4.8e-12	AS=4.8e-12	PD=2.096e-05	PS=2.096e-05
+ NRD=0.0173	NRS=0.0173
MMM5@1	net9#44	net10#11	net8#63	VDD3A	pe3	L=5e-06
+ W=1e-05
+ AD=4.8e-12	AS=4.8e-12	PD=2.096e-05	PS=2.096e-05
+ NRD=0.0173	NRS=0.0173
MMM3@6	net7#34	net6#11	net8#70	VDD3A	pe3	L=5e-06
+ W=1e-05
+ AD=4.8e-12	AS=4.8e-12	PD=2.096e-05	PS=2.096e-05
+ NRD=0.0173	NRS=0.0173
MMM10@2	net8#79	net4#14	VDD3A#182	VDD3A	pe3	L=5e-06
+ W=1e-05
+ AD=4.8e-12	AS=4.8e-12	PD=2.096e-05	PS=2.096e-05
+ NRD=0.0173	NRS=0.0173
MMM10@4	net8#84	net4#17	VDD3A#187	VDD3A	pe3	L=5e-06
+ W=1e-05
+ AD=4.8e-12	AS=4.8e-12	PD=2.096e-05	PS=2.096e-05
+ NRD=0.0173	NRS=0.0173
MMM3@8	net7#27	net6#8	net8#39	VDD3A	pe3	L=5e-06
+ W=1e-05
+ AD=4.8e-12	AS=4.8e-12	PD=2.096e-05	PS=2.096e-05
+ NRD=0.0173	NRS=0.0173
MMM5@8	net9#37	net10#8	net8#46	VDD3A	pe3	L=5e-06
+ W=1e-05
+ AD=4.8e-12	AS=4.8e-12	PD=2.096e-05	PS=2.096e-05
+ NRD=0.0173	NRS=0.0173
MMM10@16	net8#55	net4#8	VDD3A#172	VDD3A	pe3	L=5e-06
+ W=1e-05
+ AD=4.8e-12	AS=4.8e-12	PD=2.096e-05	PS=2.096e-05
+ NRD=0.0173	NRS=0.0173
MMM10@9	net8#60	net4#11	VDD3A#177	VDD3A	pe3	L=5e-06
+ W=1e-05
+ AD=4.8e-12	AS=4.8e-12	PD=2.096e-05	PS=2.096e-05
+ NRD=0.0173	NRS=0.0173
MMM5@5	net9#30	net10#5	net8#15	VDD3A	pe3	L=5e-06
+ W=1e-05
+ AD=4.8e-12	AS=4.8e-12	PD=2.096e-05	PS=2.096e-05
+ NRD=0.0173	NRS=0.0173
MMM3@12	net7#20	net6#5	net8#22	VDD3A	pe3	L=5e-06
+ W=1e-05
+ AD=4.8e-12	AS=4.8e-12	PD=2.096e-05	PS=2.096e-05
+ NRD=0.0173	NRS=0.0173
MMM10@8	net8#31	net4#2	VDD3A#162	VDD3A	pe3	L=5e-06
+ W=1e-05
+ AD=4.8e-12	AS=4.8e-12	PD=2.096e-05	PS=2.096e-05
+ NRD=0.0173	NRS=0.0173
MMM10@7	net8#36	net4#5	VDD3A#167	VDD3A	pe3	L=5e-06
+ W=1e-05
+ AD=4.8e-12	AS=4.8e-12	PD=2.096e-05	PS=2.096e-05
+ NRD=0.0173	NRS=0.0173
MMM3@10	net7#13	net6#2	net8	VDD3A	pe3	L=5e-06	W=1e-05
+ AD=4.8e-12	AS=4.8e-12	PD=2.096e-05	PS=2.096e-05
+ NRD=0.0173	NRS=0.0173
MMM5@10	net9#23	net10#2	net8#8	VDD3A	pe3	L=5e-06
+ W=1e-05
+ AD=4.8e-12	AS=4.8e-12	PD=2.096e-05	PS=2.096e-05
+ NRD=0.0173	NRS=0.0173
MMM30@3	VDD3A#136	VDD3A#36	VDD3A#142	VDD3A	pe3	L=5e-06
+ W=1e-05
+ AD=4.8e-12	AS=4.8e-12	PD=2.096e-05	PS=2.096e-05
+ NRD=0.0173	NRS=0.0173
MMM29	VDD3A#155	VDD3A#39	VDD3A#149	VDD3A	pe3	L=5e-06
+ W=1e-05
+ AD=4.8e-12	AS=4.8e-12	PD=2.096e-05	PS=2.096e-05
+ NRD=0.0173	NRS=0.0173
MMM29@2	VDD3A#365	VDD3A#30	VDD3A#359	VDD3A	pe3	L=5e-06
+ W=1e-05
+ AD=4.8e-12	AS=4.8e-12	PD=2.096e-05	PS=2.096e-05
+ NRD=0.0173	NRS=0.0173
MMM30@1	VDD3A#353	VDD3A#33	VDD3A#347	VDD3A	pe3	L=5e-06
+ W=1e-05
+ AD=4.8e-12	AS=4.8e-12	PD=2.096e-05	PS=2.096e-05
+ NRD=0.0173	NRS=0.0173
MMM35@1	net13#15	PACTIVE#6	VDD3A#53	VDD3A	pe3	L=3e-07
+ W=3e-06
+ AD=8.1e-13	AS=1.44e-12	PD=3.54e-06	PS=6.96e-06
+ NRD=0.0576667	NRS=0.0576667
MMM35	net13#15	PACTIVE#10	VDD3A#62	VDD3A	pe3	L=3e-07
+ W=3e-06
+ AD=8.1e-13	AS=1.44e-12	PD=3.54e-06	PS=6.96e-06
+ NRD=0.0576667	NRS=0.0576667
MMM26	net16#15	EN#6	VDD3A#64	VDD3A	pe3	L=3e-07
+ W=3e-06
+ AD=8.1e-13	AS=1.44e-12	PD=3.54e-06	PS=6.96e-06
+ NRD=0.0576667	NRS=0.0576667
MMM26@1	net16#15	EN#10	VDD3A#66	VDD3A	pe3	L=3e-07
+ W=3e-06
+ AD=8.1e-13	AS=1.44e-12	PD=3.54e-06	PS=6.96e-06
+ NRD=0.0576667	NRS=0.0576667
MMM20	VB#36	net15#14	VDD3A#108	VDD3A	pe3	L=1e-06
+ W=1e-05
+ AD=4.8e-12	AS=4.8e-12	PD=2.096e-05	PS=2.096e-05
+ NRD=0.0173	NRS=0.0173
MMM20@2	VB#31	net15#11	VDD3A#103	VDD3A	pe3	L=1e-06
+ W=1e-05
+ AD=4.8e-12	AS=4.8e-12	PD=2.096e-05	PS=2.096e-05
+ NRD=0.0173	NRS=0.0173
MMM23	net15#36	net15#8	VDD3A#98	VDD3A	pe3	L=1e-06
+ W=1e-05
+ AD=4.8e-12	AS=4.8e-12	PD=2.096e-05	PS=2.096e-05
+ NRD=0.0173	NRS=0.0173
MMM20@3	VB#26	net15#5	VDD3A#93	VDD3A	pe3	L=1e-06
+ W=1e-05
+ AD=4.8e-12	AS=4.8e-12	PD=2.096e-05	PS=2.096e-05
+ NRD=0.0173	NRS=0.0173
MMM20@1	VB#21	net15#2	VDD3A#88	VDD3A	pe3	L=1e-06
+ W=1e-05
+ AD=4.8e-12	AS=4.8e-12	PD=2.096e-05	PS=2.096e-05
+ NRD=0.0173	NRS=0.0173
*
*
*       CANONICAL RESISTOR AND CAP/DIODE CARDS
*
RRR1	VSUBHV	GNDA	s_res 	5.000000
RRR2	VA#4	VDDHV#2	rpp1k1_3 	L=0.00041122	W=4e-06
+ $SUB=VSUBHV 
RRR4@8	FB#17	net1#72	rpp1k1_3 	L=1e-05	W=2e-06
+ $SUB=GNDA 
RRR4@7	FB#15	net1#70	rpp1k1_3 	L=1e-05	W=2e-06
+ $SUB=GNDA 
RRR4@6	FB#13	net1#68	rpp1k1_3 	L=1e-05	W=2e-06
+ $SUB=GNDA 
RRR4@5	FB#11	net1#66	rpp1k1_3 	L=1e-05	W=2e-06
+ $SUB=GNDA 
RRR4@4	FB#9	net1#64	rpp1k1_3 	L=1e-05	W=2e-06
+ $SUB=GNDA 
RRR4@3	FB#7	net1#62	rpp1k1_3 	L=1e-05	W=2e-06
+ $SUB=GNDA 
RRR4@2	FB#5	net1#60	rpp1k1_3 	L=1e-05	W=2e-06
+ $SUB=GNDA 
RRR4@1	FB#3	net1#58	rpp1k1_3 	L=1e-05	W=2e-06
+ $SUB=GNDA 
RRR4	FB#1	net1#56	rpp1k1_3 	L=1e-05	W=2e-06
+ $SUB=GNDA 
RRR7	GNDHV#3	OUT#2	rpp1k1_3 	L=0.00204354	W=2e-06
+ $SUB=VSUBHV 
RRR3	GNDHV#1	VA#1	rpp1k1_3 	L=0.00010265	W=4e-06
+ $SUB=VSUBHV 
RRR0	net11#2	VB#2	rpp1k1_3 	L=0.00016435	W=4e-06
+ $SUB=VDD3A 
*
*       PARASITIC RESISTOR AND CAP/DIODE CARDS
*
Rb119	net9#219	net9#306	1.108955	$METTP	$L=3.16e-05
+ $W=8.8e-07	$X=325.62 $Y=127.34
Rb120	net9#306	net9#307	1.108955	$METTP	$L=3.16e-05
+ $W=8.8e-07	$X=294.02 $Y=127.34
Rb121	net9#307	net9#155	1.108955	$METTP	$L=3.16e-05
+ $W=8.8e-07	$X=262.42 $Y=127.34
Rc3	net9#164	net9#13	2.623693	$MET4	$L=5.18047e-05
+ $W=1.46e-06	$X=76.4875 $Y=77.77
Rc218	VA	VA#2	1.387131	$MET4	$L=5.55153e-05	$W=2.96e-06
+ $X=303.315 $Y=82.035
Rc229	net11#13	net11#16	2.432750	$MET4	$L=3.16e-05
+ $W=9.6e-07	$X=325.62 $Y=127.34
Rc230	net11#16	net11#17	2.432750	$MET4	$L=3.16e-05
+ $W=9.6e-07	$X=294.02 $Y=127.34
Rc231	net11#17	net11	1.416052	$MET4	$L=1.841e-05
+ $W=9.6e-07	$X=269.015 $Y=127.34
Rc232	net11	net11#19	1.013677	$MET4	$L=1.319e-05
+ $W=9.6e-07	$X=253.215 $Y=127.34
Rc233	net11#19	net11#20	1.193269	$MET4	$L=1.55002e-05
+ $W=9.6e-07	$X=238.87 $Y=127.34
Rc237	net11#13	net11#24	1.193193	$MET4	$L=1.54998e-05
+ $W=9.6e-07	$X=349.1695 $Y=127.34
Rc410	FB	FB#826	9.713713	$MET4	$L=0.00012632	$W=9.6e-07
+ $X=313.74 $Y=89.29
Rc411	FB#826	FB#19	2.221591	$MET4	$L=2.88603e-05	$W=9.6e-07
+ $X=250.58 $Y=89.29
Rd6	net5#31	net5#36	1.210429	$MET3	$L=3.206e-05
+ $W=1.96e-06	$X=12.94 $Y=45.99
Rd16	net14#36	net14#31	1.210429	$MET3	$L=3.206e-05
+ $W=1.96e-06	$X=10.66 $Y=15.77
Rd18	net14#31	net14	1.258944	$MET3	$L=3.3385e-05
+ $W=1.96e-06	$X=27.3525 $Y=55.885
Rd23	net14#28	net14#33	1.210429	$MET3	$L=3.206e-05
+ $W=1.96e-06	$X=76.86 $Y=47.83
Rd26	net5#33	net5#11	1.210429	$MET3	$L=3.206e-05
+ $W=1.96e-06	$X=79.2 $Y=13.93
Rd45	net4#218	net4#79	1.828471	$MET3	$L=3.86652e-05
+ $W=1.46e-06	$X=87.495 $Y=106.5
Rd50	net7#128	net7#138	1.248939	$MET3	$L=3.308e-05
+ $W=1.96e-06	$X=104.63 $Y=97.16
Rd53	net6	net6#274	1.224776	$MET3	$L=3.244e-05
+ $W=1.96e-06	$X=106.31 $Y=152.805
Rd56	net8#304	net8#318	1.426388	$MET3	$L=3.778e-05
+ $W=1.96e-06	$X=108.59 $Y=156.365
Rd60	net8#318	net8#343	1.047326	$MET3	$L=2.774e-05
+ $W=1.96e-06	$X=106.91 $Y=95.38
Rd63	VDD3A#419	VDD3A	1.023163	$MET3	$L=2.71e-05
+ $W=1.96e-06	$X=110.87 $Y=123.925
Rd68	VDD3A#419	VDD3A	1.023163	$MET3	$L=2.71e-05
+ $W=1.96e-06	$X=208.81 $Y=123.925
Rd73	net8#297	net8#311	1.426388	$MET3	$L=3.778e-05
+ $W=1.96e-06	$X=211.09 $Y=156.365
Rd76	net8#318	net8#343	1.047326	$MET3	$L=2.774e-05
+ $W=1.96e-06	$X=211.09 $Y=95.38
Rd81	GNDA	GNDA#358	1.301620	$MET3	$L=3.44905e-05
+ $W=1.96e-06	$X=104.025 $Y=15.0195
Rd94	GNDA#358	GNDA	1.311680	$MET3	$L=3.52402e-05
+ $W=1.96e-06	$X=211.945 $Y=14.27
Rd108	net10	net10#258	1.224776	$MET3	$L=3.244e-05
+ $W=1.96e-06	$X=213.37 $Y=154.585
Rd117	net9#155	net9#164	1.248939	$MET3	$L=3.308e-05
+ $W=1.96e-06	$X=213.37 $Y=98.94
Rd124	net7#128	net7#140	1.248939	$MET3	$L=3.308e-05
+ $W=1.96e-06	$X=215.65 $Y=97.16
Rd137	VB	VB#73	1.036944	$MET3	$L=2.7465e-05	$W=1.96e-06
+ $X=259.8825 $Y=101.23
Rd138	VB#73	VB#63	2.120317	$MET3	$L=5.61797e-05	$W=1.96e-06
+ $X=259.895 $Y=73.765
Rd142	VB#63	VB#85	7.915466	$MET3	$L=0.00015621	$W=1.46e-06
+ $X=172.195 $Y=9.48
Rd143	VB#85	VB#62	4.606753	$MET3	$L=9.093e-05	$W=1.46e-06
+ $X=94.09 $Y=9.48
Re10	net13#29	net13#14	1.556829	$MET2	$L=6.345e-06
+ $W=3e-07	$X=19.12 $Y=82.02
Re16	net16#28	net16#32	1.665000	$MET2	$L=6.79e-06
+ $W=3e-07	$X=23.07 $Y=86.895
Re17	net16#32	net16#33	1.990600	$MET2	$L=8.11e-06
+ $W=3e-07	$X=19.015 $Y=80.105
Re19	net16#33	net16#14	1.565100	$MET2	$L=6.345e-06
+ $W=3e-07	$X=14.96 $Y=82.02
Re38	net15#57	net15#16	1.049178	$MET2	$L=2.074e-05
+ $W=1.46e-06	$X=66.97 $Y=80.67
Re67	net12#25	net12#100	1.630184	$MET2	$L=3.21898e-05
+ $W=1.46e-06	$X=34.075 $Y=49.67
Re68	net12#100	net12#101	1.589986	$MET2	$L=3.237e-05
+ $W=1.46e-06	$X=65.855 $Y=49.67
Re71	net14#28	net14#31	2.572260	$MET2	$L=5.075e-05
+ $W=1.46e-06	$X=36.035 $Y=47.83
Re74	net5#11	net5#30	2.041082	$MET2	$L=4.027e-05
+ $W=1.46e-06	$X=59.065 $Y=45.99
Re75	net5#30	net5#31	1.317301	$MET2	$L=2.599e-05
+ $W=1.46e-06	$X=25.935 $Y=45.99
Re87	net12#102	net12#103	4.086087	$MET2	$L=2.64e-05
+ $W=4.6e-07	$X=68.84 $Y=31.9
Re88	net12#103	net12#104	1.808174	$MET2	$L=1.124e-05
+ $W=4.6e-07	$X=50.52 $Y=31.9
Re89	net12#104	net12#105	1.808174	$MET2	$L=1.124e-05
+ $W=4.6e-07	$X=39.28 $Y=31.9
Re90	net12#105	net12#106	4.066782	$MET2	$L=2.628e-05
+ $W=4.6e-07	$X=21.02 $Y=31.9
Re101	net12#101	net12#108	1.589986	$MET2	$L=3.237e-05
+ $W=1.46e-06	$X=65.855 $Y=17.61
Re102	net12#108	net12#25	2.118123	$MET2	$L=4.279e-05
+ $W=1.46e-06	$X=29.275 $Y=17.61
Re105	net14#33	net14#36	2.572260	$MET2	$L=5.075e-05
+ $W=1.46e-06	$X=36.035 $Y=15.77
Re108	net5#33	net5#35	2.041082	$MET2	$L=4.027e-05
+ $W=1.46e-06	$X=59.065 $Y=13.93
Re109	net5#35	net5#36	1.317301	$MET2	$L=2.599e-05
+ $W=1.46e-06	$X=25.935 $Y=13.93
Re118	VB#57	VB#62	1.040562	$MET2	$L=2.31e-05	$W=1.46e-06
+ $X=81.92 $Y=100.41
Re122	net10#177	net10#43	1.224984	$MET2	$L=4.95975e-06
+ $W=3e-07	$X=106.545 $Y=43.8495
Re123	net10#43	net10#197	1.223467	$MET2	$L=4.96e-06
+ $W=3e-07	$X=106.545 $Y=36.41
Re124	net6#192	net6#43	1.223467	$MET2	$L=4.96e-06
+ $W=3e-07	$X=106.545 $Y=29.84
Re125	net6#43	net6#185	1.223398	$MET2	$L=4.95975e-06
+ $W=3e-07	$X=106.545 $Y=22.41
Re132	GNDA#358	GNDA#361	1.526327	$MET2	$L=4.9505e-06
+ $W=2.4e-07	$X=112.085 $Y=48.8
Re133	GNDA#361	GNDA#103	1.224984	$MET2	$L=4.95975e-06
+ $W=3e-07	$X=112.085 $Y=43.8495
Re134	GNDA#103	GNDA#363	1.223467	$MET2	$L=4.96e-06
+ $W=3e-07	$X=112.085 $Y=36.41
Re135	GNDA#364	GNDA#107	1.223467	$MET2	$L=4.96e-06
+ $W=3e-07	$X=112.085 $Y=29.84
Re136	GNDA#107	GNDA#366	1.223398	$MET2	$L=4.95975e-06
+ $W=3e-07	$X=112.085 $Y=22.41
Re137	GNDA#366	GNDA	1.526327	$MET2	$L=4.9505e-06
+ $W=2.4e-07	$X=112.085 $Y=19.93
Re143	net10#177	net10#47	1.224984	$MET2	$L=4.95975e-06
+ $W=3e-07	$X=117.625 $Y=43.8495
Re144	net10#47	net10#203	1.223467	$MET2	$L=4.96e-06
+ $W=3e-07	$X=117.625 $Y=36.41
Re145	net6#198	net6#47	1.223467	$MET2	$L=4.96e-06
+ $W=3e-07	$X=117.625 $Y=29.84
Re146	net6#47	net6#185	1.223398	$MET2	$L=4.95975e-06
+ $W=3e-07	$X=117.625 $Y=22.41
Re152	GNDA#358	GNDA#373	1.526327	$MET2	$L=4.9505e-06
+ $W=2.4e-07	$X=123.165 $Y=48.8
Re153	GNDA#373	GNDA#111	1.224984	$MET2	$L=4.95975e-06
+ $W=3e-07	$X=123.165 $Y=43.8495
Re154	GNDA#111	GNDA#375	1.223467	$MET2	$L=4.96e-06
+ $W=3e-07	$X=123.165 $Y=36.41
Re155	GNDA#376	GNDA#115	1.223467	$MET2	$L=4.96e-06
+ $W=3e-07	$X=123.165 $Y=29.84
Re156	GNDA#115	GNDA#378	1.223398	$MET2	$L=4.95975e-06
+ $W=3e-07	$X=123.165 $Y=22.41
Re157	GNDA#378	GNDA	1.526327	$MET2	$L=4.9505e-06
+ $W=2.4e-07	$X=123.165 $Y=19.93
Re163	net10#177	net10#63	1.224984	$MET2	$L=4.95975e-06
+ $W=3e-07	$X=128.705 $Y=43.8495
Re164	net10#63	net10#209	1.223467	$MET2	$L=4.96e-06
+ $W=3e-07	$X=128.705 $Y=36.41
Re165	net6#204	net6#63	1.223467	$MET2	$L=4.96e-06
+ $W=3e-07	$X=128.705 $Y=29.84
Re166	net6#63	net6#185	1.223398	$MET2	$L=4.95975e-06
+ $W=3e-07	$X=128.705 $Y=22.41
Re172	GNDA#358	GNDA#385	1.526327	$MET2	$L=4.9505e-06
+ $W=2.4e-07	$X=134.245 $Y=48.8
Re173	GNDA#385	GNDA#119	1.224984	$MET2	$L=4.95975e-06
+ $W=3e-07	$X=134.245 $Y=43.8495
Re174	GNDA#119	GNDA#387	1.223467	$MET2	$L=4.96e-06
+ $W=3e-07	$X=134.245 $Y=36.41
Re175	GNDA#388	GNDA#123	1.223467	$MET2	$L=4.96e-06
+ $W=3e-07	$X=134.245 $Y=29.84
Re176	GNDA#123	GNDA#390	1.223398	$MET2	$L=4.95975e-06
+ $W=3e-07	$X=134.245 $Y=22.41
Re177	GNDA#390	GNDA	1.526327	$MET2	$L=4.9505e-06
+ $W=2.4e-07	$X=134.245 $Y=19.93
Re183	net10#177	net10#79	1.224984	$MET2	$L=4.95975e-06
+ $W=3e-07	$X=139.785 $Y=43.8495
Re184	net10#79	net10#215	1.223467	$MET2	$L=4.96e-06
+ $W=3e-07	$X=139.785 $Y=36.41
Re185	net6#210	net6#79	1.223467	$MET2	$L=4.96e-06
+ $W=3e-07	$X=139.785 $Y=29.84
Re186	net6#79	net6#185	1.223398	$MET2	$L=4.95975e-06
+ $W=3e-07	$X=139.785 $Y=22.41
Re192	GNDA#358	GNDA#397	1.526327	$MET2	$L=4.9505e-06
+ $W=2.4e-07	$X=145.325 $Y=48.8
Re193	GNDA#397	GNDA#127	1.224984	$MET2	$L=4.95975e-06
+ $W=3e-07	$X=145.325 $Y=43.8495
Re194	GNDA#127	GNDA#399	1.223467	$MET2	$L=4.96e-06
+ $W=3e-07	$X=145.325 $Y=36.41
Re195	GNDA#400	GNDA#131	1.223467	$MET2	$L=4.96e-06
+ $W=3e-07	$X=145.325 $Y=29.84
Re196	GNDA#131	GNDA#402	1.223398	$MET2	$L=4.95975e-06
+ $W=3e-07	$X=145.325 $Y=22.41
Re197	GNDA#402	GNDA	1.526327	$MET2	$L=4.9505e-06
+ $W=2.4e-07	$X=145.325 $Y=19.93
Re203	net10#177	net10#89	1.224984	$MET2	$L=4.95975e-06
+ $W=3e-07	$X=150.865 $Y=43.8495
Re204	net10#89	net10#221	1.223467	$MET2	$L=4.96e-06
+ $W=3e-07	$X=150.865 $Y=36.41
Re205	net6#216	net6#89	1.223467	$MET2	$L=4.96e-06
+ $W=3e-07	$X=150.865 $Y=29.84
Re206	net6#89	net6#185	1.223398	$MET2	$L=4.95975e-06
+ $W=3e-07	$X=150.865 $Y=22.41
Re212	GNDA#358	GNDA#409	1.526327	$MET2	$L=4.9505e-06
+ $W=2.4e-07	$X=156.405 $Y=48.8
Re213	GNDA#409	GNDA#135	1.224984	$MET2	$L=4.95975e-06
+ $W=3e-07	$X=156.405 $Y=43.8495
Re214	GNDA#135	GNDA#411	1.223467	$MET2	$L=4.96e-06
+ $W=3e-07	$X=156.405 $Y=36.41
Re215	GNDA#412	GNDA#139	1.223467	$MET2	$L=4.96e-06
+ $W=3e-07	$X=156.405 $Y=29.84
Re216	GNDA#139	GNDA#414	1.223398	$MET2	$L=4.95975e-06
+ $W=3e-07	$X=156.405 $Y=22.41
Re217	GNDA#414	GNDA	1.526327	$MET2	$L=4.9505e-06
+ $W=2.4e-07	$X=156.405 $Y=19.93
Re223	net6#177	net6#110	1.224984	$MET2	$L=4.95975e-06
+ $W=3e-07	$X=160.825 $Y=43.8495
Re224	net6#110	net6#227	1.223467	$MET2	$L=4.96e-06
+ $W=3e-07	$X=160.825 $Y=36.41
Re225	net10#222	net10#110	1.223467	$MET2	$L=4.96e-06
+ $W=3e-07	$X=160.825 $Y=29.84
Re226	net10#110	net10#185	1.223398	$MET2	$L=4.95975e-06
+ $W=3e-07	$X=160.825 $Y=22.41
Re232	GNDA#358	GNDA#421	1.526327	$MET2	$L=4.9505e-06
+ $W=2.4e-07	$X=166.365 $Y=48.8
Re233	GNDA#421	GNDA#143	1.224984	$MET2	$L=4.95975e-06
+ $W=3e-07	$X=166.365 $Y=43.8495
Re234	GNDA#143	GNDA#423	1.223467	$MET2	$L=4.96e-06
+ $W=3e-07	$X=166.365 $Y=36.41
Re235	GNDA#424	GNDA#147	1.223467	$MET2	$L=4.96e-06
+ $W=3e-07	$X=166.365 $Y=29.84
Re236	GNDA#147	GNDA#426	1.223398	$MET2	$L=4.95975e-06
+ $W=3e-07	$X=166.365 $Y=22.41
Re237	GNDA#426	GNDA	1.526327	$MET2	$L=4.9505e-06
+ $W=2.4e-07	$X=166.365 $Y=19.93
Re243	net6#177	net6#131	1.224984	$MET2	$L=4.95975e-06
+ $W=3e-07	$X=171.905 $Y=43.8495
Re244	net6#131	net6#233	1.223467	$MET2	$L=4.96e-06
+ $W=3e-07	$X=171.905 $Y=36.41
Re245	net10#228	net10#131	1.223467	$MET2	$L=4.96e-06
+ $W=3e-07	$X=171.905 $Y=29.84
Re246	net10#131	net10#185	1.223398	$MET2	$L=4.95975e-06
+ $W=3e-07	$X=171.905 $Y=22.41
Re252	GNDA#358	GNDA#433	1.526327	$MET2	$L=4.9505e-06
+ $W=2.4e-07	$X=177.445 $Y=48.8
Re253	GNDA#433	GNDA#151	1.224984	$MET2	$L=4.95975e-06
+ $W=3e-07	$X=177.445 $Y=43.8495
Re254	GNDA#151	GNDA#435	1.223467	$MET2	$L=4.96e-06
+ $W=3e-07	$X=177.445 $Y=36.41
Re255	GNDA#436	GNDA#155	1.223467	$MET2	$L=4.96e-06
+ $W=3e-07	$X=177.445 $Y=29.84
Re256	GNDA#155	GNDA#438	1.223398	$MET2	$L=4.95975e-06
+ $W=3e-07	$X=177.445 $Y=22.41
Re257	GNDA#438	GNDA	1.526327	$MET2	$L=4.9505e-06
+ $W=2.4e-07	$X=177.445 $Y=19.93
Re263	net6#177	net6#141	1.224984	$MET2	$L=4.95975e-06
+ $W=3e-07	$X=182.985 $Y=43.8495
Re264	net6#141	net6#239	1.223467	$MET2	$L=4.96e-06
+ $W=3e-07	$X=182.985 $Y=36.41
Re265	net10#234	net10#141	1.223467	$MET2	$L=4.96e-06
+ $W=3e-07	$X=182.985 $Y=29.84
Re266	net10#141	net10#185	1.223398	$MET2	$L=4.95975e-06
+ $W=3e-07	$X=182.985 $Y=22.41
Re272	GNDA#358	GNDA#445	1.526327	$MET2	$L=4.9505e-06
+ $W=2.4e-07	$X=188.525 $Y=48.8
Re273	GNDA#445	GNDA#159	1.224984	$MET2	$L=4.95975e-06
+ $W=3e-07	$X=188.525 $Y=43.8495
Re274	GNDA#159	GNDA#447	1.223467	$MET2	$L=4.96e-06
+ $W=3e-07	$X=188.525 $Y=36.41
Re275	GNDA#448	GNDA#163	1.223467	$MET2	$L=4.96e-06
+ $W=3e-07	$X=188.525 $Y=29.84
Re276	GNDA#163	GNDA#450	1.223398	$MET2	$L=4.95975e-06
+ $W=3e-07	$X=188.525 $Y=22.41
Re277	GNDA#450	GNDA	1.526327	$MET2	$L=4.9505e-06
+ $W=2.4e-07	$X=188.525 $Y=19.93
Re283	net6#177	net6#157	1.224984	$MET2	$L=4.95975e-06
+ $W=3e-07	$X=194.065 $Y=43.8495
Re284	net6#157	net6#245	1.223467	$MET2	$L=4.96e-06
+ $W=3e-07	$X=194.065 $Y=36.41
Re285	net10#240	net10#157	1.223467	$MET2	$L=4.96e-06
+ $W=3e-07	$X=194.065 $Y=29.84
Re286	net10#157	net10#185	1.223398	$MET2	$L=4.95975e-06
+ $W=3e-07	$X=194.065 $Y=22.41
Re292	GNDA#358	GNDA#457	1.526327	$MET2	$L=4.9505e-06
+ $W=2.4e-07	$X=199.605 $Y=48.8
Re293	GNDA#457	GNDA#167	1.224984	$MET2	$L=4.95975e-06
+ $W=3e-07	$X=199.605 $Y=43.8495
Re294	GNDA#167	GNDA#459	1.223467	$MET2	$L=4.96e-06
+ $W=3e-07	$X=199.605 $Y=36.41
Re295	GNDA#460	GNDA#171	1.223467	$MET2	$L=4.96e-06
+ $W=3e-07	$X=199.605 $Y=29.84
Re296	GNDA#171	GNDA#462	1.223398	$MET2	$L=4.95975e-06
+ $W=3e-07	$X=199.605 $Y=22.41
Re297	GNDA#462	GNDA	1.526327	$MET2	$L=4.9505e-06
+ $W=2.4e-07	$X=199.605 $Y=19.93
Re303	net6#177	net6#173	1.224984	$MET2	$L=4.95975e-06
+ $W=3e-07	$X=205.145 $Y=43.8495
Re304	net6#173	net6#251	1.223467	$MET2	$L=4.96e-06
+ $W=3e-07	$X=205.145 $Y=36.41
Re305	net10#246	net10#173	1.223467	$MET2	$L=4.96e-06
+ $W=3e-07	$X=205.145 $Y=29.84
Re306	net10#173	net10#185	1.223398	$MET2	$L=4.95975e-06
+ $W=3e-07	$X=205.145 $Y=22.41
Re312	GNDA#358	GNDA#469	1.526327	$MET2	$L=4.9505e-06
+ $W=2.4e-07	$X=210.685 $Y=48.8
Re313	GNDA#469	GNDA#175	1.224984	$MET2	$L=4.95975e-06
+ $W=3e-07	$X=210.685 $Y=43.8495
Re314	GNDA#175	GNDA#471	1.223467	$MET2	$L=4.96e-06
+ $W=3e-07	$X=210.685 $Y=36.41
Re315	GNDA#472	GNDA#179	1.223467	$MET2	$L=4.96e-06
+ $W=3e-07	$X=210.685 $Y=29.84
Re316	GNDA#179	GNDA#474	1.223398	$MET2	$L=4.95975e-06
+ $W=3e-07	$X=210.685 $Y=22.41
Re317	GNDA#474	GNDA	1.526327	$MET2	$L=4.9505e-06
+ $W=2.4e-07	$X=210.685 $Y=19.93
Re320	IN#145	IN#146	1.782167	$MET2	$L=5.78e-06	$W=2.4e-07
+ $X=211.315 $Y=32.17
Re321	IN#146	IN#147	1.708167	$MET2	$L=5.54e-06	$W=2.4e-07
+ $X=205.655 $Y=32.17
Re322	IN#147	IN#148	1.708167	$MET2	$L=5.54e-06	$W=2.4e-07
+ $X=200.115 $Y=32.17
Re323	IN#148	IN#149	1.708167	$MET2	$L=5.54e-06	$W=2.4e-07
+ $X=194.575 $Y=32.17
Re324	IN#149	IN#150	1.708167	$MET2	$L=5.54e-06	$W=2.4e-07
+ $X=189.035 $Y=32.17
Re325	IN#150	IN#151	1.708167	$MET2	$L=5.54e-06	$W=2.4e-07
+ $X=183.495 $Y=32.17
Re326	IN#151	IN#152	1.708167	$MET2	$L=5.54e-06	$W=2.4e-07
+ $X=177.955 $Y=32.17
Re327	IN#152	IN#153	1.708167	$MET2	$L=5.54e-06	$W=2.4e-07
+ $X=172.415 $Y=32.17
Re328	IN#153	IN#154	1.708167	$MET2	$L=5.54e-06	$W=2.4e-07
+ $X=166.875 $Y=32.17
Re329	IN#154	IN#155	3.132667	$MET2	$L=1.016e-05	$W=2.4e-07
+ $X=159.025 $Y=32.17
Re330	IN#155	IN#156	1.708167	$MET2	$L=5.54e-06	$W=2.4e-07
+ $X=151.175 $Y=32.17
Re331	IN#156	IN#157	1.708167	$MET2	$L=5.54e-06	$W=2.4e-07
+ $X=145.635 $Y=32.17
Re332	IN#157	IN#158	1.708167	$MET2	$L=5.54e-06	$W=2.4e-07
+ $X=140.095 $Y=32.17
Re333	IN#158	IN#159	1.708167	$MET2	$L=5.54e-06	$W=2.4e-07
+ $X=134.555 $Y=32.17
Re334	IN#159	IN#160	1.708167	$MET2	$L=5.54e-06	$W=2.4e-07
+ $X=129.015 $Y=32.17
Re335	IN#160	IN#161	1.708167	$MET2	$L=5.54e-06	$W=2.4e-07
+ $X=123.475 $Y=32.17
Re336	IN#161	IN#162	1.708167	$MET2	$L=5.54e-06	$W=2.4e-07
+ $X=117.935 $Y=32.17
Re337	IN#162	IN#163	1.708167	$MET2	$L=5.54e-06	$W=2.4e-07
+ $X=112.395 $Y=32.17
Re338	IN#163	IN	3.279137	$MET2	$L=1.06353e-05	$W=2.4e-07
+ $X=104.307 $Y=32.17
Re341	net4#216	net4#217	2.688329	$MET2	$L=5.404e-05
+ $W=1.46e-06	$X=189.13 $Y=158.145
Re342	net4#217	net4#218	2.969123	$MET2	$L=5.958e-05
+ $W=1.46e-06	$X=133.32 $Y=158.145
Re349	net8#297	net8#304	1.265096	$MET2	$L=2.496e-05
+ $W=1.46e-06	$X=162.61 $Y=156.365
Re357	net10	net10#254	2.256493	$MET2	$L=4.452e-05
+ $W=1.46e-06	$X=191.11 $Y=154.585
Re358	net10#254	net10#255	3.336082	$MET2	$L=6.582e-05
+ $W=1.46e-06	$X=135.94 $Y=154.585
Re359	net6#252	net6#253	3.055288	$MET2	$L=6.028e-05
+ $W=1.46e-06	$X=186.51 $Y=152.805
Re360	net6#253	net6	2.537287	$MET2	$L=5.006e-05
+ $W=1.46e-06	$X=131.34 $Y=152.805
Re382	net4#219	net4#220	2.955174	$MET2	$L=1.937e-05
+ $W=4.6e-07	$X=206.465 $Y=137.545
Re383	net4#220	net4#221	1.003826	$MET2	$L=6.24e-06
+ $W=4.6e-07	$X=194.16 $Y=137.545
Re384	net4#221	net4#222	1.003826	$MET2	$L=6.24e-06
+ $W=4.6e-07	$X=187.92 $Y=137.545
Re385	net4#222	net4#223	1.003826	$MET2	$L=6.24e-06
+ $W=4.6e-07	$X=181.68 $Y=137.545
Re386	net4#223	net4#224	1.003826	$MET2	$L=6.24e-06
+ $W=4.6e-07	$X=175.44 $Y=137.545
Re387	net4#224	net4#225	1.003826	$MET2	$L=6.24e-06
+ $W=4.6e-07	$X=169.2 $Y=137.545
Re388	net4#225	net4#226	1.003826	$MET2	$L=6.24e-06
+ $W=4.6e-07	$X=162.96 $Y=137.545
Re389	net4#226	net4#227	1.003826	$MET2	$L=6.24e-06
+ $W=4.6e-07	$X=156.72 $Y=137.545
Re390	net4#227	net4#228	1.003826	$MET2	$L=6.24e-06
+ $W=4.6e-07	$X=150.48 $Y=137.545
Re391	net4#228	net4#229	1.003826	$MET2	$L=6.24e-06
+ $W=4.6e-07	$X=144.24 $Y=137.545
Re392	net4#229	net4#230	1.003826	$MET2	$L=6.24e-06
+ $W=4.6e-07	$X=138 $Y=137.545
Re393	net4#230	net4#231	1.003826	$MET2	$L=6.24e-06
+ $W=4.6e-07	$X=131.76 $Y=137.545
Re394	net4#231	net4#232	1.003826	$MET2	$L=6.24e-06
+ $W=4.6e-07	$X=125.52 $Y=137.545
Re395	net4#232	net4#233	2.955174	$MET2	$L=1.937e-05
+ $W=4.6e-07	$X=113.215 $Y=137.545
Re422	net8#311	net8#318	1.265096	$MET2	$L=2.496e-05
+ $W=1.46e-06	$X=162.61 $Y=118.585
Re429	net4#216	net4#235	2.688329	$MET2	$L=5.404e-05
+ $W=1.46e-06	$X=189.13 $Y=116.805
Re430	net4#235	net4#218	2.969123	$MET2	$L=5.958e-05
+ $W=1.46e-06	$X=133.32 $Y=116.805
Re439	net9#155	net9#164	1.272192	$MET2	$L=2.61e-05
+ $W=1.46e-06	$X=114.9 $Y=98.94
Re493	net7#138	net7#140	1.156630	$MET2	$L=2.282e-05
+ $W=1.46e-06	$X=116.04 $Y=64.08
Re501	net6#256	net6#257	2.749261	$MET2	$L=1.709e-05
+ $W=4.6e-07	$X=208.105 $Y=81.12
Re502	net6#257	net6#258	1.090696	$MET2	$L=6.78e-06
+ $W=4.6e-07	$X=196.17 $Y=81.12
Re504	net6#258	net6#260	1.090696	$MET2	$L=6.78e-06
+ $W=4.6e-07	$X=183.69 $Y=81.12
Re506	net6#260	net6#262	1.090696	$MET2	$L=6.78e-06
+ $W=4.6e-07	$X=171.21 $Y=81.12
Re508	net6#262	net6#264	1.090696	$MET2	$L=6.78e-06
+ $W=4.6e-07	$X=158.73 $Y=81.12
Re510	net6#264	net6#266	1.090696	$MET2	$L=6.78e-06
+ $W=4.6e-07	$X=146.25 $Y=81.12
Re512	net6#266	net6#268	1.090696	$MET2	$L=6.78e-06
+ $W=4.6e-07	$X=133.77 $Y=81.12
Re514	net6#268	net6#270	1.090696	$MET2	$L=6.78e-06
+ $W=4.6e-07	$X=121.29 $Y=81.12
Re515	net6#270	net6#271	3.046748	$MET2	$L=1.9165e-05
+ $W=4.6e-07	$X=108.3175 $Y=81.12
Re518	net6#271	net6#274	1.959120	$MET2	$L=3.8495e-05
+ $W=1.46e-06	$X=97.49 $Y=81.87
Re519	net6#271	net6#183	1.520937	$MET2	$L=2.98697e-05
+ $W=1.46e-06	$X=98.6075 $Y=81.12
Re523	net6#274	net6#279	3.169836	$MET2	$L=6.254e-05
+ $W=1.46e-06	$X=137.58 $Y=120.365
Re524	net6#279	net6#280	2.422740	$MET2	$L=4.78e-05
+ $W=1.46e-06	$X=192.75 $Y=120.365
Re525	VDD3A#440	VDD3A	1.082867	$MET2	$L=4.39e-06
+ $W=3e-07	$X=43.945 $Y=152.94
Re532	VDD3A	VDD3A#448	1.288833	$MET2	$L=5.225e-06
+ $W=3e-07	$X=18.8325 $Y=152.94
Re538	VDD3A	VDD3A#454	1.288833	$MET2	$L=5.225e-06
+ $W=3e-07	$X=18.8325 $Y=130.94
Re540	VDD3A	VDD3A#456	1.082867	$MET2	$L=4.39e-06
+ $W=3e-07	$X=43.945 $Y=130.94
Re547	VDD3A	VDD3A#54	1.778599	$MET2	$L=4.28003e-05
+ $W=1.78e-06	$X=38.31 $Y=92.345
Re550	VDD3A	VDD3A#466	1.288833	$MET2	$L=5.225e-06
+ $W=3e-07	$X=51.4325 $Y=152.94
Re552	VDD3A	VDD3A#468	1.082867	$MET2	$L=4.39e-06
+ $W=3e-07	$X=76.545 $Y=152.94
Re554	VDD3A	VDD3A#470	1.288833	$MET2	$L=5.225e-06
+ $W=3e-07	$X=51.4325 $Y=130.94
Re556	VDD3A	VDD3A#472	1.082867	$MET2	$L=4.39e-06
+ $W=3e-07	$X=76.545 $Y=130.94
Re572	net10#256	net10#257	2.703534	$MET2	$L=5.334e-05
+ $W=1.46e-06	$X=129.7 $Y=122.145
Re573	net10#257	net10#258	2.889041	$MET2	$L=5.7e-05
+ $W=1.46e-06	$X=184.87 $Y=122.145
Re575	net10#258	net10#260	2.037788	$MET2	$L=4.0245e-05
+ $W=1.46e-06	$X=222.225 $Y=122.145
Re578	net10#260	net10#263	3.078252	$MET2	$L=1.91353e-05
+ $W=4.6e-07	$X=209.8075 $Y=81.9
Re580	net10#263	net10#265	1.073000	$MET2	$L=6.67e-06
+ $W=4.6e-07	$X=191.095 $Y=81.9
Re582	net10#265	net10#267	1.073000	$MET2	$L=6.67e-06
+ $W=4.6e-07	$X=178.615 $Y=81.9
Re584	net10#267	net10#269	1.073000	$MET2	$L=6.67e-06
+ $W=4.6e-07	$X=166.135 $Y=81.9
Re586	net10#269	net10#271	1.073000	$MET2	$L=6.67e-06
+ $W=4.6e-07	$X=153.655 $Y=81.9
Re588	net10#271	net10#273	1.073000	$MET2	$L=6.67e-06
+ $W=4.6e-07	$X=141.175 $Y=81.9
Re590	net10#273	net10#275	1.073000	$MET2	$L=6.67e-06
+ $W=4.6e-07	$X=128.695 $Y=81.9
Re592	net10#260	net10#183	1.559056	$MET2	$L=3.07997e-05
+ $W=1.46e-06	$X=220.125 $Y=81.9
Re595	net10#275	net10#280	2.927826	$MET2	$L=1.82e-05
+ $W=4.6e-07	$X=110.45 $Y=81.9
Re598	net1#163	net1#177	1.301141	$MET2	$L=4.24e-06
+ $W=2.4e-07	$X=225.11 $Y=71.895
Re599	net1#177	net1#178	12.408875	$MET2	$L=4.0285e-05
+ $W=2.4e-07	$X=222.99 $Y=71.895
Re600	net1#178	net1#179	4.642025	$MET2	$L=1.50752e-05
+ $W=2.4e-07	$X=215.4525 $Y=31.61
Re601	net1#179	net1#180	1.708167	$MET2	$L=5.54e-06
+ $W=2.4e-07	$X=205.145 $Y=31.61
Re602	net1#180	net1#181	1.708167	$MET2	$L=5.54e-06
+ $W=2.4e-07	$X=199.605 $Y=31.61
Re603	net1#181	net1#182	1.708167	$MET2	$L=5.54e-06
+ $W=2.4e-07	$X=194.065 $Y=31.61
Re604	net1#182	net1#183	1.708167	$MET2	$L=5.54e-06
+ $W=2.4e-07	$X=188.525 $Y=31.61
Re605	net1#183	net1#184	1.708167	$MET2	$L=5.54e-06
+ $W=2.4e-07	$X=182.985 $Y=31.61
Re606	net1#184	net1#185	1.708167	$MET2	$L=5.54e-06
+ $W=2.4e-07	$X=177.445 $Y=31.61
Re607	net1#185	net1#186	1.708167	$MET2	$L=5.54e-06
+ $W=2.4e-07	$X=171.905 $Y=31.61
Re608	net1#186	net1#187	1.708167	$MET2	$L=5.54e-06
+ $W=2.4e-07	$X=166.365 $Y=31.61
Re609	net1#187	net1#188	3.166583	$MET2	$L=1.027e-05
+ $W=2.4e-07	$X=158.46 $Y=31.61
Re610	net1#188	net1#189	1.708167	$MET2	$L=5.54e-06
+ $W=2.4e-07	$X=150.555 $Y=31.61
Re611	net1#189	net1#190	1.708167	$MET2	$L=5.54e-06
+ $W=2.4e-07	$X=145.015 $Y=31.61
Re612	net1#190	net1#191	1.708167	$MET2	$L=5.54e-06
+ $W=2.4e-07	$X=139.475 $Y=31.61
Re613	net1#191	net1#192	1.708167	$MET2	$L=5.54e-06
+ $W=2.4e-07	$X=133.935 $Y=31.61
Re614	net1#192	net1#193	1.708167	$MET2	$L=5.54e-06
+ $W=2.4e-07	$X=128.395 $Y=31.61
Re615	net1#193	net1#194	1.708167	$MET2	$L=5.54e-06
+ $W=2.4e-07	$X=122.855 $Y=31.61
Re616	net1#194	net1#195	1.708167	$MET2	$L=5.54e-06
+ $W=2.4e-07	$X=117.315 $Y=31.61
Re617	net1#195	net1#196	1.708167	$MET2	$L=5.54e-06
+ $W=2.4e-07	$X=111.775 $Y=31.61
Re618	net1#196	net1#197	1.843833	$MET2	$L=5.98e-06
+ $W=2.4e-07	$X=106.015 $Y=31.61
Re649	net9#178	net9#164	1.588587	$MET2	$L=9.915e-06
+ $W=4.6e-07	$X=243.275 $Y=27.5
Re680	VB#70	VB#73	1.467705	$MET2	$L=1.31105e-05	$W=6.6e-07
+ $X=267.19 $Y=73.77
Re682	VB#70	VB#75	5.296606	$MET2	$L=4.728e-05	$W=6.6e-07
+ $X=273.745 $Y=73.77
Re726	VDDHV	VDDHV#1	1.349374	$MET2	$L=7.22298e-05
+ $W=3.96e-06	$X=369.45 $Y=157.76
Re1107	VA	VA#273	8.226025	$MET2	$L=0.00010675	$W=9.6e-07
+ $X=378.295 $Y=77.48
Re1109	VA#273	VA#275	1.329757	$MET2	$L=1.19e-05	$W=6.6e-07
+ $X=431.67 $Y=69.645
Re1110	VA#275	VA#276	1.019182	$MET2	$L=9.13e-06	$W=6.6e-07
+ $X=431.67 $Y=57.745
Re1111	VA#276	VA#277	7.906788	$MET2	$L=7.056e-05	$W=6.6e-07
+ $X=466.95 $Y=48.615
Re1112	VA#277	VA#278	1.019182	$MET2	$L=9.13e-06	$W=6.6e-07
+ $X=502.23 $Y=48.615
Re1115	VA#273	VA#281	1.329757	$MET2	$L=1.19e-05	$W=6.6e-07
+ $X=431.67 $Y=81.545
Re1116	VA#281	VA#282	1.329757	$MET2	$L=1.19e-05	$W=6.6e-07
+ $X=431.67 $Y=93.445
Re1117	VA#282	VA#283	1.329757	$MET2	$L=1.19e-05	$W=6.6e-07
+ $X=431.67 $Y=105.345
Re1118	VA#283	VA#284	1.329757	$MET2	$L=1.19e-05	$W=6.6e-07
+ $X=431.67 $Y=117.245
Re1119	VA#284	VA#285	1.329757	$MET2	$L=1.19e-05	$W=6.6e-07
+ $X=431.67 $Y=129.145
Re1123	VA#278	VA#289	1.329757	$MET2	$L=1.19e-05	$W=6.6e-07
+ $X=502.23 $Y=57.745
Re1130	VA#289	VA#296	1.329757	$MET2	$L=1.19e-05	$W=6.6e-07
+ $X=502.23 $Y=69.645
Re1132	VA#296	VA#298	1.329757	$MET2	$L=1.19e-05	$W=6.6e-07
+ $X=502.23 $Y=81.545
Re1134	VA#298	VA#300	1.329757	$MET2	$L=1.19e-05	$W=6.6e-07
+ $X=502.23 $Y=93.445
Re1136	VA#300	VA#302	1.329757	$MET2	$L=1.19e-05	$W=6.6e-07
+ $X=502.23 $Y=105.345
Re1138	VA#302	VA#304	1.329757	$MET2	$L=1.19e-05	$W=6.6e-07
+ $X=502.23 $Y=117.245
Re1140	VA#304	VA#306	1.329757	$MET2	$L=1.19e-05	$W=6.6e-07
+ $X=502.23 $Y=129.145
Re1147	GNDHV#47	GNDHV	6.634618	$MET2	$L=0.00024164
+ $W=2.695e-06	$X=436.455 $Y=25.7425
Rf3	net12#25	net12#28	1.633266	$MET1	$L=6.78775e-06
+ $W=3.2e-07	$X=7.79 $Y=61.7395
Rf4	net12#28	net12#30	1.209742	$MET1	$L=5.6725e-06
+ $W=3.2e-07	$X=7.79 $Y=71.041
Rf43	VDD3A#54	VDD3A#61	1.568026	$MET1	$L=6.54e-06
+ $W=3.2e-07	$X=12.17 $Y=91.665
Rf47	VDD3A#61	VDD3A#68	2.338875	$MET1	$L=9.74e-06
+ $W=3.2e-07	$X=17.04 $Y=85.125
Rf48	VDD3A#68	VDD3A#54	1.559423	$MET1	$L=6.48e-06
+ $W=3.2e-07	$X=21.93 $Y=85.125
Rf60	GNDA#17	GNDA#19	1.210344	$MET1	$L=5.03e-06
+ $W=3.2e-07	$X=27.69 $Y=42.17
Rf61	GNDA#19	GNDA#22	1.114037	$MET1	$L=4.63975e-06
+ $W=3.2e-07	$X=27.69 $Y=34.82
Rf63	GNDA#22	GNDA#2	1.209742	$MET1	$L=5.0275e-06
+ $W=3.2e-07	$X=24.221 $Y=32.5
Rf64	GNDA#2	GNDA#25	1.094186	$MET1	$L=4.55725e-06
+ $W=3.2e-07	$X=19.4285 $Y=32.5
Rf65	GNDA#25	GNDA#26	1.114037	$MET1	$L=4.63975e-06
+ $W=3.2e-07	$X=17.15 $Y=32.5
Rf66	GNDA#26	GNDA#28	1.210344	$MET1	$L=5.03e-06
+ $W=3.2e-07	$X=17.15 $Y=39.655
Rf70	GNDA#31	GNDA#33	1.342086	$MET1	$L=5.5775e-06
+ $W=3.2e-07	$X=17.15 $Y=19.45
Rf71	GNDA#33	GNDA#35	1.209742	$MET1	$L=5.0275e-06
+ $W=3.2e-07	$X=17.15 $Y=27.541
Rf73	GNDA#35	GNDA#5	1.094186	$MET1	$L=4.55725e-06
+ $W=3.2e-07	$X=19.4285 $Y=31.1
Rf74	GNDA#5	GNDA#38	1.209742	$MET1	$L=5.0275e-06
+ $W=3.2e-07	$X=24.221 $Y=31.1
Rf77	GNDA#38	GNDA#40	1.209742	$MET1	$L=5.0275e-06
+ $W=3.2e-07	$X=27.69 $Y=30.055
Rf78	GNDA#40	GNDA#43	1.342086	$MET1	$L=5.5775e-06
+ $W=3.2e-07	$X=27.69 $Y=22.2385
Rf85	GNDA#45	GNDA#47	1.210344	$MET1	$L=9.27e-06
+ $W=3.2e-07	$X=28.39 $Y=42.17
Rf87	GNDA#50	GNDA#52	1.342086	$MET1	$L=5.5775e-06
+ $W=3.2e-07	$X=28.39 $Y=19.45
Rf88	GNDA#52	GNDA#54	1.209742	$MET1	$L=5.6725e-06
+ $W=3.2e-07	$X=28.39 $Y=27.541
Rf91	net12#25	net12#44	1.633266	$MET1	$L=6.78775e-06
+ $W=3.2e-07	$X=28.87 $Y=61.7395
Rf92	net12#44	net12#46	1.209742	$MET1	$L=5.6725e-06
+ $W=3.2e-07	$X=28.87 $Y=71.041
Rf100	net13#24	net13#26	1.181525	$MET1	$L=4.92025e-06
+ $W=3.2e-07	$X=26.825 $Y=88.285
Rf105	net14	net14#4	1.204954	$MET1	$L=5.00775e-06
+ $W=3.2e-07	$X=33.575 $Y=63.5195
Rf106	net14#4	net14#6	1.209742	$MET1	$L=5.6725e-06
+ $W=3.2e-07	$X=33.575 $Y=71.041
Rf107	net12#47	net12#2	1.035834	$MET1	$L=4.95975e-06
+ $W=3.2e-07	$X=35.8175 $Y=32.5
Rf114	net12#2	net12#55	1.035834	$MET1	$L=4.95975e-06
+ $W=3.2e-07	$X=35.8175 $Y=31.1
Rf117	net5	net5#3	1.210344	$MET1	$L=9.27e-06	$W=3.2e-07
+ $X=38.93 $Y=42.17
Rf119	net5#6	net5#8	2.670336	$MET1	$L=1.10975e-05	$W=3.2e-07
+ $X=38.93 $Y=13.93
Rf120	net5#8	net5#10	1.209742	$MET1	$L=5.6725e-06
+ $W=3.2e-07	$X=38.93 $Y=27.541
Rf123	GNDA#55	GNDA#57	1.210344	$MET1	$L=9.27e-06
+ $W=3.2e-07	$X=39.63 $Y=42.17
Rf125	GNDA#60	GNDA#62	1.342086	$MET1	$L=5.5775e-06
+ $W=3.2e-07	$X=39.63 $Y=19.45
Rf126	GNDA#62	GNDA#64	1.209742	$MET1	$L=5.6725e-06
+ $W=3.2e-07	$X=39.63 $Y=27.541
Rf129	net15#16	net15#19	1.633266	$MET1	$L=6.78775e-06
+ $W=3.2e-07	$X=44.115 $Y=61.7395
Rf130	net15#19	net15#21	1.209742	$MET1	$L=5.6725e-06
+ $W=3.2e-07	$X=44.115 $Y=71.041
Rf143	net12#56	net12#10	1.035834	$MET1	$L=4.95975e-06
+ $W=3.2e-07	$X=47.0575 $Y=32.5
Rf150	net12#10	net12#64	1.035834	$MET1	$L=4.95975e-06
+ $W=3.2e-07	$X=47.0575 $Y=31.1
Rf152	net12#65	net12#68	1.804688	$MET1	$L=7.5e-06
+ $W=3.2e-07	$X=50.17 $Y=49.67
Rf153	net12#68	net12#67	1.210344	$MET1	$L=9.27e-06
+ $W=3.2e-07	$X=50.17 $Y=42.17
Rf155	net12#70	net12#72	1.784836	$MET1	$L=7.4175e-06
+ $W=3.2e-07	$X=50.17 $Y=17.61
Rf156	net12#72	net12#74	1.209742	$MET1	$L=5.6725e-06
+ $W=3.2e-07	$X=50.17 $Y=27.541
Rf159	GNDA#65	GNDA#67	1.210344	$MET1	$L=9.27e-06
+ $W=3.2e-07	$X=50.87 $Y=42.17
Rf161	GNDA#70	GNDA#72	1.342086	$MET1	$L=5.5775e-06
+ $W=3.2e-07	$X=50.87 $Y=19.45
Rf162	GNDA#72	GNDA#74	1.209742	$MET1	$L=5.6725e-06
+ $W=3.2e-07	$X=50.87 $Y=27.541
Rf165	net14	net14#10	1.204954	$MET1	$L=5.00775e-06
+ $W=3.2e-07	$X=54.655 $Y=63.5195
Rf166	net14#10	net14#12	1.209742	$MET1	$L=5.6725e-06
+ $W=3.2e-07	$X=54.655 $Y=71.041
Rf169	net5#11	net5#14	1.171266	$MET1	$L=4.86775e-06
+ $W=3.2e-07	$X=59.3 $Y=63.6595
Rf170	net5#14	net5#16	1.209742	$MET1	$L=5.6725e-06
+ $W=3.2e-07	$X=59.3 $Y=71.041
Rf171	net12#75	net12#18	1.035834	$MET1	$L=4.95975e-06
+ $W=3.2e-07	$X=58.2975 $Y=32.5
Rf178	net12#18	net12#83	1.035834	$MET1	$L=4.95975e-06
+ $W=3.2e-07	$X=58.2975 $Y=31.1
Rf180	net14#13	net14#16	1.361938	$MET1	$L=5.66e-06
+ $W=3.2e-07	$X=61.41 $Y=47.83
Rf181	net14#16	net14#15	1.210344	$MET1	$L=9.27e-06
+ $W=3.2e-07	$X=61.41 $Y=42.17
Rf183	net14#18	net14#20	2.227586	$MET1	$L=9.2575e-06
+ $W=3.2e-07	$X=61.41 $Y=15.77
Rf184	net14#20	net14#22	1.209742	$MET1	$L=5.6725e-06
+ $W=3.2e-07	$X=61.41 $Y=27.541
Rf186	VB#19	VB#22	1.484656	$MET1	$L=6.17e-06	$W=3.2e-07
+ $X=62.695 $Y=100.41
Rf187	VB#22	VB#21	1.210344	$MET1	$L=9.27e-06	$W=3.2e-07
+ $X=62.695 $Y=94.24
Rf195	VDD3A#86	VDD3A#88	1.210344	$MET1	$L=9.27e-06
+ $W=3.2e-07	$X=64.235 $Y=94.24
Rf197	VB#24	VB#27	1.484656	$MET1	$L=6.17e-06	$W=3.2e-07
+ $X=64.935 $Y=100.41
Rf198	VB#27	VB#26	1.210344	$MET1	$L=9.27e-06	$W=3.2e-07
+ $X=64.935 $Y=94.24
Rf206	VDD3A#91	VDD3A#93	1.210344	$MET1	$L=9.27e-06
+ $W=3.2e-07	$X=66.475 $Y=94.24
Rf208	net15#34	net15#37	1.056344	$MET1	$L=4.39e-06
+ $W=3.2e-07	$X=67.175 $Y=98.63
Rf209	net15#37	net15#36	1.210344	$MET1	$L=9.27e-06
+ $W=3.2e-07	$X=67.175 $Y=94.24
Rf217	VDD3A#96	VDD3A#98	1.210344	$MET1	$L=9.27e-06
+ $W=3.2e-07	$X=68.715 $Y=94.24
Rf219	VB#29	VB#32	1.484656	$MET1	$L=6.17e-06	$W=3.2e-07
+ $X=69.415 $Y=100.41
Rf220	VB#32	VB#31	1.210344	$MET1	$L=9.27e-06	$W=3.2e-07
+ $X=69.415 $Y=94.24
Rf223	net4#79	net4#82	1.614016	$MET1	$L=6.70775e-06
+ $W=3.2e-07	$X=69.84 $Y=61.8195
Rf224	net4#82	net4#84	1.209742	$MET1	$L=5.6725e-06
+ $W=3.2e-07	$X=69.84 $Y=71.041
Rf232	VDD3A#101	VDD3A#103	1.210344	$MET1	$L=9.27e-06
+ $W=3.2e-07	$X=70.955 $Y=94.24
Rf234	VB#34	VB#37	1.484656	$MET1	$L=6.17e-06	$W=3.2e-07
+ $X=71.655 $Y=100.41
Rf235	VB#37	VB#36	1.210344	$MET1	$L=9.27e-06	$W=3.2e-07
+ $X=71.655 $Y=94.24
Rf238	GNDA#75	GNDA#77	1.210344	$MET1	$L=5.03e-06
+ $W=3.2e-07	$X=72.65 $Y=42.17
Rf239	GNDA#77	GNDA#80	1.114037	$MET1	$L=4.63975e-06
+ $W=3.2e-07	$X=72.65 $Y=34.82
Rf241	GNDA#80	GNDA#10	1.209742	$MET1	$L=5.0275e-06
+ $W=3.2e-07	$X=69.181 $Y=32.5
Rf242	GNDA#10	GNDA#83	1.094186	$MET1	$L=4.55725e-06
+ $W=3.2e-07	$X=64.3885 $Y=32.5
Rf243	GNDA#83	GNDA#84	1.114037	$MET1	$L=4.63975e-06
+ $W=3.2e-07	$X=62.11 $Y=32.5
Rf244	GNDA#84	GNDA#86	1.210344	$MET1	$L=5.03e-06
+ $W=3.2e-07	$X=62.11 $Y=39.655
Rf248	GNDA#89	GNDA#91	1.342086	$MET1	$L=5.5775e-06
+ $W=3.2e-07	$X=62.11 $Y=19.45
Rf249	GNDA#91	GNDA#93	1.209742	$MET1	$L=5.0275e-06
+ $W=3.2e-07	$X=62.11 $Y=27.541
Rf251	GNDA#93	GNDA#13	1.094186	$MET1	$L=4.55725e-06
+ $W=3.2e-07	$X=64.3885 $Y=31.1
Rf252	GNDA#13	GNDA#96	1.209742	$MET1	$L=5.0275e-06
+ $W=3.2e-07	$X=69.181 $Y=31.1
Rf255	GNDA#96	GNDA#98	1.209742	$MET1	$L=5.0275e-06
+ $W=3.2e-07	$X=72.65 $Y=30.055
Rf256	GNDA#98	GNDA#101	1.342086	$MET1	$L=5.5775e-06
+ $W=3.2e-07	$X=72.65 $Y=22.2385
Rf265	VDD3A#106	VDD3A#108	1.210344	$MET1	$L=9.27e-06
+ $W=3.2e-07	$X=73.195 $Y=94.24
Rf269	VDD3A	VDD3A#115	5.002170	$MET1	$L=2.10397e-05
+ $W=3.2e-07	$X=60.212 $Y=102.95
Rf270	VDD3A#115	VDD3A#116	3.700813	$MET1	$L=1.54e-05
+ $W=3.2e-07	$X=67.945 $Y=81.91
Rf271	VDD3A#116	VDD3A	4.918375	$MET1	$L=2.046e-05
+ $W=3.2e-07	$X=75.645 $Y=81.91
Rf289	BIAS	BIAS#25	1.204954	$MET1	$L=5.00775e-06
+ $W=3.2e-07	$X=18.33 $Y=63.5195
Rf290	BIAS#25	BIAS#4	1.209742	$MET1	$L=5.0275e-06
+ $W=3.2e-07	$X=18.33 $Y=71.041
Rf292	BIAS#4	BIAS#3	1.436588	$MET1	$L=1.02303e-05	$W=3.2e-07
+ $X=15.34 $Y=74.6
Rf294	BIAS#4	BIAS#31	1.438336	$MET1	$L=5.9775e-06
+ $W=3.2e-07	$X=23.976 $Y=74.6
Rf295	BIAS#31	BIAS#10	2.687781	$MET1	$L=1.117e-05
+ $W=3.2e-07	$X=32.55 $Y=74.6
Rf296	BIAS#10	BIAS#11	2.078398	$MET1	$L=8.6375e-06
+ $W=3.2e-07	$X=42.4535 $Y=74.6
Rf297	BIAS#11	BIAS#34	1.438336	$MET1	$L=5.9775e-06
+ $W=3.2e-07	$X=49.761 $Y=74.6
Rf298	BIAS#34	BIAS#17	2.673344	$MET1	$L=1.111e-05
+ $W=3.2e-07	$X=58.305 $Y=74.6
Rf299	BIAS#17	BIAS#18	2.078398	$MET1	$L=8.6375e-06
+ $W=3.2e-07	$X=68.1785 $Y=74.6
Rf300	BIAS#18	BIAS#37	1.438336	$MET1	$L=7.5725e-06
+ $W=3.2e-07	$X=75.486 $Y=74.6
Rf303	net5#11	net5#20	1.171266	$MET1	$L=4.86775e-06
+ $W=3.2e-07	$X=80.38 $Y=63.6595
Rf304	net5#20	net5#22	1.209742	$MET1	$L=5.6725e-06
+ $W=3.2e-07	$X=80.38 $Y=71.041
Rf324	net8#2	net8	1.210344	$MET1	$L=9.27e-06	$W=3.2e-07
+ $X=115.67 $Y=92.63
Rf326	net8#8	net8#10	1.022055	$MET1	$L=4.2475e-06
+ $W=3.2e-07	$X=115.67 $Y=71.8635
Rf329	net8#8	net8#13	1.209742	$MET1	$L=5.6725e-06
+ $W=3.2e-07	$X=115.67 $Y=76.501
Rf345	VDD3A#134	VDD3A#136	1.210344	$MET1	$L=5.03e-06
+ $W=3.2e-07	$X=118.93 $Y=148.275
Rf346	VDD3A#136	VDD3A#37	1.114037	$MET1	$L=4.63975e-06
+ $W=3.2e-07	$X=118.93 $Y=140.925
Rf349	VDD3A#37	VDD3A#142	1.114037	$MET1	$L=4.63975e-06
+ $W=3.2e-07	$X=113.39 $Y=138.605
Rf350	VDD3A#142	VDD3A#144	1.210344	$MET1	$L=5.03e-06
+ $W=3.2e-07	$X=113.39 $Y=145.76
Rf354	VDD3A#147	VDD3A#149	1.527367	$MET1	$L=6.3475e-06
+ $W=3.2e-07	$X=113.39 $Y=123.925
Rf355	VDD3A#149	VDD3A#40	1.209742	$MET1	$L=5.0275e-06
+ $W=3.2e-07	$X=113.39 $Y=132.786
Rf360	VDD3A#40	VDD3A#155	1.209742	$MET1	$L=5.0275e-06
+ $W=3.2e-07	$X=118.93 $Y=135.3
Rf361	VDD3A#155	VDD3A#158	1.527367	$MET1	$L=6.3475e-06
+ $W=3.2e-07	$X=118.93 $Y=127.0985
Rf365	VDD3A#160	VDD3A#162	1.210344	$MET1	$L=9.27e-06
+ $W=3.2e-07	$X=119.63 $Y=148.275
Rf367	VDD3A#165	VDD3A#167	1.527367	$MET1	$L=6.3475e-06
+ $W=3.2e-07	$X=119.63 $Y=123.925
Rf368	VDD3A#167	VDD3A#169	1.209742	$MET1	$L=5.6725e-06
+ $W=3.2e-07	$X=119.63 $Y=132.786
Rf380	net7#14	net7#16	1.180717	$MET1	$L=3.22025e-06
+ $W=2.1e-07	$X=121.21 $Y=92.63
Rf382	net7#14	net7#13	1.210344	$MET1	$L=9.27e-06
+ $W=3.2e-07	$X=121.21 $Y=92.63
Rf384	net9#23	net9#25	1.022055	$MET1	$L=4.2475e-06
+ $W=3.2e-07	$X=121.21 $Y=71.8635
Rf385	net9#25	net9#26	1.180717	$MET1	$L=3.22025e-06
+ $W=2.1e-07	$X=121.21 $Y=73.9875
Rf387	net9#23	net9#28	1.209742	$MET1	$L=5.6725e-06
+ $W=3.2e-07	$X=121.21 $Y=76.501
Rf392	net8#16	net8#15	1.210344	$MET1	$L=9.27e-06
+ $W=3.2e-07	$X=121.91 $Y=92.63
Rf394	net8#22	net8#24	1.022055	$MET1	$L=4.2475e-06
+ $W=3.2e-07	$X=121.91 $Y=71.8635
Rf397	net8#22	net8#27	1.209742	$MET1	$L=5.6725e-06
+ $W=3.2e-07	$X=121.91 $Y=76.501
Rf420	net8#29	net8#32	1.946656	$MET1	$L=8.09e-06
+ $W=3.2e-07	$X=125.17 $Y=156.365
Rf421	net8#32	net8#31	1.210344	$MET1	$L=9.27e-06
+ $W=3.2e-07	$X=125.17 $Y=148.275
Rf423	net8#34	net8#36	2.812305	$MET1	$L=1.16875e-05
+ $W=3.2e-07	$X=125.17 $Y=118.585
Rf424	net8#36	net8#38	1.209742	$MET1	$L=5.6725e-06
+ $W=3.2e-07	$X=125.17 $Y=132.786
Rf427	VDD3A#170	VDD3A#172	1.210344	$MET1	$L=9.27e-06
+ $W=3.2e-07	$X=125.87 $Y=148.275
Rf429	VDD3A#175	VDD3A#177	1.527367	$MET1	$L=6.3475e-06
+ $W=3.2e-07	$X=125.87 $Y=123.925
Rf430	VDD3A#177	VDD3A#179	1.209742	$MET1	$L=5.6725e-06
+ $W=3.2e-07	$X=125.87 $Y=132.786
Rf442	net9#31	net9#33	1.833384	$MET1	$L=5.00025e-06
+ $W=2.1e-07	$X=127.45 $Y=92.63
Rf444	net9#31	net9#30	1.210344	$MET1	$L=9.27e-06
+ $W=3.2e-07	$X=127.45 $Y=92.63
Rf446	net7#20	net7#22	1.022055	$MET1	$L=4.2475e-06
+ $W=3.2e-07	$X=127.45 $Y=71.8635
Rf447	net7#22	net7#23	1.833384	$MET1	$L=5.00025e-06
+ $W=2.1e-07	$X=127.45 $Y=73.9875
Rf449	net7#20	net7#25	1.209742	$MET1	$L=5.6725e-06
+ $W=3.2e-07	$X=127.45 $Y=76.501
Rf454	net8#40	net8#39	1.210344	$MET1	$L=9.27e-06
+ $W=3.2e-07	$X=128.15 $Y=92.63
Rf456	net8#46	net8#48	1.022055	$MET1	$L=4.2475e-06
+ $W=3.2e-07	$X=128.15 $Y=71.8635
Rf459	net8#46	net8#51	1.209742	$MET1	$L=5.6725e-06
+ $W=3.2e-07	$X=128.15 $Y=76.501
Rf482	net8#53	net8#56	1.946656	$MET1	$L=8.09e-06
+ $W=3.2e-07	$X=131.41 $Y=156.365
Rf483	net8#56	net8#55	1.210344	$MET1	$L=9.27e-06
+ $W=3.2e-07	$X=131.41 $Y=148.275
Rf485	net8#58	net8#60	2.812305	$MET1	$L=1.16875e-05
+ $W=3.2e-07	$X=131.41 $Y=118.585
Rf486	net8#60	net8#62	1.209742	$MET1	$L=5.6725e-06
+ $W=3.2e-07	$X=131.41 $Y=132.786
Rf489	VDD3A#180	VDD3A#182	1.210344	$MET1	$L=9.27e-06
+ $W=3.2e-07	$X=132.11 $Y=148.275
Rf491	VDD3A#185	VDD3A#187	1.527367	$MET1	$L=6.3475e-06
+ $W=3.2e-07	$X=132.11 $Y=123.925
Rf492	VDD3A#187	VDD3A#189	1.209742	$MET1	$L=5.6725e-06
+ $W=3.2e-07	$X=132.11 $Y=132.786
Rf504	net7#28	net7#30	1.180717	$MET1	$L=3.22025e-06
+ $W=2.1e-07	$X=133.69 $Y=92.63
Rf506	net7#28	net7#27	1.210344	$MET1	$L=9.27e-06
+ $W=3.2e-07	$X=133.69 $Y=92.63
Rf508	net9#37	net9#39	1.022055	$MET1	$L=4.2475e-06
+ $W=3.2e-07	$X=133.69 $Y=71.8635
Rf509	net9#39	net9#40	1.180717	$MET1	$L=3.22025e-06
+ $W=2.1e-07	$X=133.69 $Y=73.9875
Rf511	net9#37	net9#42	1.209742	$MET1	$L=5.6725e-06
+ $W=3.2e-07	$X=133.69 $Y=76.501
Rf528	net8#64	net8#63	1.210344	$MET1	$L=9.27e-06
+ $W=3.2e-07	$X=134.39 $Y=92.63
Rf530	net8#70	net8#72	1.022055	$MET1	$L=4.2475e-06
+ $W=3.2e-07	$X=134.39 $Y=71.8635
Rf533	net8#70	net8#75	1.209742	$MET1	$L=5.6725e-06
+ $W=3.2e-07	$X=134.39 $Y=76.501
Rf544	net8#77	net8#80	1.946656	$MET1	$L=8.09e-06
+ $W=3.2e-07	$X=137.65 $Y=156.365
Rf545	net8#80	net8#79	1.210344	$MET1	$L=9.27e-06
+ $W=3.2e-07	$X=137.65 $Y=148.275
Rf547	net8#82	net8#84	2.812305	$MET1	$L=1.16875e-05
+ $W=3.2e-07	$X=137.65 $Y=118.585
Rf548	net8#84	net8#86	1.209742	$MET1	$L=5.6725e-06
+ $W=3.2e-07	$X=137.65 $Y=132.786
Rf551	VDD3A#190	VDD3A#192	1.210344	$MET1	$L=9.27e-06
+ $W=3.2e-07	$X=138.35 $Y=148.275
Rf553	VDD3A#195	VDD3A#197	1.527367	$MET1	$L=6.3475e-06
+ $W=3.2e-07	$X=138.35 $Y=123.925
Rf554	VDD3A#197	VDD3A#199	1.209742	$MET1	$L=5.6725e-06
+ $W=3.2e-07	$X=138.35 $Y=132.786
Rf578	net9#45	net9#47	1.833384	$MET1	$L=5.00025e-06
+ $W=2.1e-07	$X=139.93 $Y=92.63
Rf580	net9#45	net9#44	1.210344	$MET1	$L=9.27e-06
+ $W=3.2e-07	$X=139.93 $Y=92.63
Rf582	net7#34	net7#36	1.022055	$MET1	$L=4.2475e-06
+ $W=3.2e-07	$X=139.93 $Y=71.8635
Rf583	net7#36	net7#37	1.833384	$MET1	$L=5.00025e-06
+ $W=2.1e-07	$X=139.93 $Y=73.9875
Rf585	net7#34	net7#39	1.209742	$MET1	$L=5.6725e-06
+ $W=3.2e-07	$X=139.93 $Y=76.501
Rf590	net8#88	net8#87	1.210344	$MET1	$L=9.27e-06
+ $W=3.2e-07	$X=140.63 $Y=92.63
Rf592	net8#94	net8#96	1.022055	$MET1	$L=4.2475e-06
+ $W=3.2e-07	$X=140.63 $Y=71.8635
Rf595	net8#94	net8#99	1.209742	$MET1	$L=5.6725e-06
+ $W=3.2e-07	$X=140.63 $Y=76.501
Rf606	net8#101	net8#104	1.946656	$MET1	$L=8.09e-06
+ $W=3.2e-07	$X=143.89 $Y=156.365
Rf607	net8#104	net8#103	1.210344	$MET1	$L=9.27e-06
+ $W=3.2e-07	$X=143.89 $Y=148.275
Rf609	net8#106	net8#108	2.812305	$MET1	$L=1.16875e-05
+ $W=3.2e-07	$X=143.89 $Y=118.585
Rf610	net8#108	net8#110	1.209742	$MET1	$L=5.6725e-06
+ $W=3.2e-07	$X=143.89 $Y=132.786
Rf613	VDD3A#200	VDD3A#202	1.210344	$MET1	$L=9.27e-06
+ $W=3.2e-07	$X=144.59 $Y=148.275
Rf615	VDD3A#205	VDD3A#207	1.527367	$MET1	$L=6.3475e-06
+ $W=3.2e-07	$X=144.59 $Y=123.925
Rf616	VDD3A#207	VDD3A#209	1.209742	$MET1	$L=5.6725e-06
+ $W=3.2e-07	$X=144.59 $Y=132.786
Rf640	net7#42	net7#44	1.180717	$MET1	$L=3.22025e-06
+ $W=2.1e-07	$X=146.17 $Y=92.63
Rf642	net7#42	net7#41	1.210344	$MET1	$L=9.27e-06
+ $W=3.2e-07	$X=146.17 $Y=92.63
Rf644	net9#51	net9#53	1.022055	$MET1	$L=4.2475e-06
+ $W=3.2e-07	$X=146.17 $Y=71.8635
Rf645	net9#53	net9#54	1.180717	$MET1	$L=3.22025e-06
+ $W=2.1e-07	$X=146.17 $Y=73.9875
Rf647	net9#51	net9#56	1.209742	$MET1	$L=5.6725e-06
+ $W=3.2e-07	$X=146.17 $Y=76.501
Rf652	net8#112	net8#111	1.210344	$MET1	$L=9.27e-06
+ $W=3.2e-07	$X=146.87 $Y=92.63
Rf654	net8#118	net8#120	1.022055	$MET1	$L=4.2475e-06
+ $W=3.2e-07	$X=146.87 $Y=71.8635
Rf657	net8#118	net8#123	1.209742	$MET1	$L=5.6725e-06
+ $W=3.2e-07	$X=146.87 $Y=76.501
Rf668	net8#125	net8#128	1.946656	$MET1	$L=8.09e-06
+ $W=3.2e-07	$X=150.13 $Y=156.365
Rf669	net8#128	net8#127	1.210344	$MET1	$L=9.27e-06
+ $W=3.2e-07	$X=150.13 $Y=148.275
Rf671	net8#130	net8#132	2.812305	$MET1	$L=1.16875e-05
+ $W=3.2e-07	$X=150.13 $Y=118.585
Rf672	net8#132	net8#134	1.209742	$MET1	$L=5.6725e-06
+ $W=3.2e-07	$X=150.13 $Y=132.786
Rf683	VDD3A#210	VDD3A#212	1.210344	$MET1	$L=9.27e-06
+ $W=3.2e-07	$X=150.83 $Y=148.275
Rf685	VDD3A#215	VDD3A#217	1.527367	$MET1	$L=6.3475e-06
+ $W=3.2e-07	$X=150.83 $Y=123.925
Rf686	VDD3A#217	VDD3A#219	1.209742	$MET1	$L=5.6725e-06
+ $W=3.2e-07	$X=150.83 $Y=132.786
Rf702	net9#59	net9#61	1.833384	$MET1	$L=5.00025e-06
+ $W=2.1e-07	$X=152.41 $Y=92.63
Rf704	net9#59	net9#58	1.210344	$MET1	$L=9.27e-06
+ $W=3.2e-07	$X=152.41 $Y=92.63
Rf706	net7#48	net7#50	1.022055	$MET1	$L=4.2475e-06
+ $W=3.2e-07	$X=152.41 $Y=71.8635
Rf707	net7#50	net7#51	1.833384	$MET1	$L=5.00025e-06
+ $W=2.1e-07	$X=152.41 $Y=73.9875
Rf709	net7#48	net7#53	1.209742	$MET1	$L=5.6725e-06
+ $W=3.2e-07	$X=152.41 $Y=76.501
Rf714	net8#136	net8#135	1.210344	$MET1	$L=9.27e-06
+ $W=3.2e-07	$X=153.11 $Y=92.63
Rf716	net8#142	net8#144	1.022055	$MET1	$L=4.2475e-06
+ $W=3.2e-07	$X=153.11 $Y=71.8635
Rf719	net8#142	net8#147	1.209742	$MET1	$L=5.6725e-06
+ $W=3.2e-07	$X=153.11 $Y=76.501
Rf738	net6#99	net6#102	1.090031	$MET1	$L=4.53e-06
+ $W=3.2e-07	$X=156.37 $Y=152.805
Rf739	net6#102	net6#101	1.210344	$MET1	$L=9.27e-06
+ $W=3.2e-07	$X=156.37 $Y=148.275
Rf741	net10#99	net10#101	1.955680	$MET1	$L=8.1275e-06
+ $W=3.2e-07	$X=156.37 $Y=122.145
Rf742	net10#101	net10#103	1.209742	$MET1	$L=5.6725e-06
+ $W=3.2e-07	$X=156.37 $Y=132.786
Rf749	VDD3A#220	VDD3A#222	1.210344	$MET1	$L=9.27e-06
+ $W=3.2e-07	$X=157.07 $Y=148.275
Rf751	VDD3A#225	VDD3A#227	1.527367	$MET1	$L=6.3475e-06
+ $W=3.2e-07	$X=157.07 $Y=123.925
Rf752	VDD3A#227	VDD3A#229	1.209742	$MET1	$L=5.6725e-06
+ $W=3.2e-07	$X=157.07 $Y=132.786
Rf764	net7#56	net7#58	1.180717	$MET1	$L=3.22025e-06
+ $W=2.1e-07	$X=158.65 $Y=92.63
Rf766	net7#56	net7#55	1.210344	$MET1	$L=9.27e-06
+ $W=3.2e-07	$X=158.65 $Y=92.63
Rf768	net9#65	net9#67	1.022055	$MET1	$L=4.2475e-06
+ $W=3.2e-07	$X=158.65 $Y=71.8635
Rf769	net9#67	net9#68	1.180717	$MET1	$L=3.22025e-06
+ $W=2.1e-07	$X=158.65 $Y=73.9875
Rf771	net9#65	net9#70	1.209742	$MET1	$L=5.6725e-06
+ $W=3.2e-07	$X=158.65 $Y=76.501
Rf776	net8#150	net8#149	1.210344	$MET1	$L=9.27e-06
+ $W=3.2e-07	$X=159.35 $Y=92.63
Rf778	net8#156	net8#158	1.022055	$MET1	$L=4.2475e-06
+ $W=3.2e-07	$X=159.35 $Y=71.8635
Rf781	net8#156	net8#161	1.209742	$MET1	$L=5.6725e-06
+ $W=3.2e-07	$X=159.35 $Y=76.501
Rf796	net4#148	net4#151	2.374969	$MET1	$L=9.87e-06
+ $W=3.2e-07	$X=162.61 $Y=158.145
Rf797	net4#151	net4#150	1.210344	$MET1	$L=9.27e-06
+ $W=3.2e-07	$X=162.61 $Y=148.275
Rf799	net4#153	net4#155	3.240617	$MET1	$L=1.34675e-05
+ $W=3.2e-07	$X=162.61 $Y=116.805
Rf800	net4#155	net4#157	1.209742	$MET1	$L=5.6725e-06
+ $W=3.2e-07	$X=162.61 $Y=132.786
Rf803	VDD3A#230	VDD3A#232	1.210344	$MET1	$L=9.27e-06
+ $W=3.2e-07	$X=163.31 $Y=148.275
Rf805	VDD3A#235	VDD3A#237	1.527367	$MET1	$L=6.3475e-06
+ $W=3.2e-07	$X=163.31 $Y=123.925
Rf806	VDD3A#237	VDD3A#239	1.209742	$MET1	$L=5.6725e-06
+ $W=3.2e-07	$X=163.31 $Y=132.786
Rf818	net9#73	net9#75	1.833384	$MET1	$L=5.00025e-06
+ $W=2.1e-07	$X=164.89 $Y=92.63
Rf820	net9#73	net9#72	1.210344	$MET1	$L=9.27e-06
+ $W=3.2e-07	$X=164.89 $Y=92.63
Rf822	net7#62	net7#64	1.022055	$MET1	$L=4.2475e-06
+ $W=3.2e-07	$X=164.89 $Y=71.8635
Rf823	net7#64	net7#65	1.833384	$MET1	$L=5.00025e-06
+ $W=2.1e-07	$X=164.89 $Y=73.9875
Rf825	net7#62	net7#67	1.209742	$MET1	$L=5.6725e-06
+ $W=3.2e-07	$X=164.89 $Y=76.501
Rf830	net8#164	net8#163	1.210344	$MET1	$L=9.27e-06
+ $W=3.2e-07	$X=165.59 $Y=92.63
Rf832	net8#170	net8#172	1.022055	$MET1	$L=4.2475e-06
+ $W=3.2e-07	$X=165.59 $Y=71.8635
Rf835	net8#170	net8#175	1.209742	$MET1	$L=5.6725e-06
+ $W=3.2e-07	$X=165.59 $Y=76.501
Rf858	net10#120	net10#123	1.518344	$MET1	$L=6.31e-06
+ $W=3.2e-07	$X=168.85 $Y=154.585
Rf859	net10#123	net10#122	1.210344	$MET1	$L=9.27e-06
+ $W=3.2e-07	$X=168.85 $Y=148.275
Rf861	net6#120	net6#122	2.383992	$MET1	$L=9.9075e-06
+ $W=3.2e-07	$X=168.85 $Y=120.365
Rf862	net6#122	net6#124	1.209742	$MET1	$L=5.6725e-06
+ $W=3.2e-07	$X=168.85 $Y=132.786
Rf865	VDD3A#240	VDD3A#242	1.210344	$MET1	$L=9.27e-06
+ $W=3.2e-07	$X=169.55 $Y=148.275
Rf867	VDD3A#245	VDD3A#247	1.527367	$MET1	$L=6.3475e-06
+ $W=3.2e-07	$X=169.55 $Y=123.925
Rf868	VDD3A#247	VDD3A#249	1.209742	$MET1	$L=5.6725e-06
+ $W=3.2e-07	$X=169.55 $Y=132.786
Rf880	net7#70	net7#72	1.180717	$MET1	$L=3.22025e-06
+ $W=2.1e-07	$X=171.13 $Y=92.63
Rf882	net7#70	net7#69	1.210344	$MET1	$L=9.27e-06
+ $W=3.2e-07	$X=171.13 $Y=92.63
Rf884	net9#79	net9#81	1.022055	$MET1	$L=4.2475e-06
+ $W=3.2e-07	$X=171.13 $Y=71.8635
Rf885	net9#81	net9#82	1.180717	$MET1	$L=3.22025e-06
+ $W=2.1e-07	$X=171.13 $Y=73.9875
Rf887	net9#79	net9#84	1.209742	$MET1	$L=5.6725e-06
+ $W=3.2e-07	$X=171.13 $Y=76.501
Rf900	net8#178	net8#177	1.210344	$MET1	$L=9.27e-06
+ $W=3.2e-07	$X=171.83 $Y=92.63
Rf902	net8#184	net8#186	1.022055	$MET1	$L=4.2475e-06
+ $W=3.2e-07	$X=171.83 $Y=71.8635
Rf905	net8#184	net8#189	1.209742	$MET1	$L=5.6725e-06
+ $W=3.2e-07	$X=171.83 $Y=76.501
Rf920	net8#191	net8#194	1.946656	$MET1	$L=8.09e-06
+ $W=3.2e-07	$X=175.09 $Y=156.365
Rf921	net8#194	net8#193	1.210344	$MET1	$L=9.27e-06
+ $W=3.2e-07	$X=175.09 $Y=148.275
Rf923	net8#196	net8#198	2.812305	$MET1	$L=1.16875e-05
+ $W=3.2e-07	$X=175.09 $Y=118.585
Rf924	net8#198	net8#200	1.209742	$MET1	$L=5.6725e-06
+ $W=3.2e-07	$X=175.09 $Y=132.786
Rf927	VDD3A#250	VDD3A#252	1.210344	$MET1	$L=9.27e-06
+ $W=3.2e-07	$X=175.79 $Y=148.275
Rf929	VDD3A#255	VDD3A#257	1.527367	$MET1	$L=6.3475e-06
+ $W=3.2e-07	$X=175.79 $Y=123.925
Rf930	VDD3A#257	VDD3A#259	1.209742	$MET1	$L=5.6725e-06
+ $W=3.2e-07	$X=175.79 $Y=132.786
Rf950	net9#87	net9#89	1.833384	$MET1	$L=5.00025e-06
+ $W=2.1e-07	$X=177.37 $Y=92.63
Rf952	net9#87	net9#86	1.210344	$MET1	$L=9.27e-06
+ $W=3.2e-07	$X=177.37 $Y=92.63
Rf954	net7#76	net7#78	1.022055	$MET1	$L=4.2475e-06
+ $W=3.2e-07	$X=177.37 $Y=71.8635
Rf955	net7#78	net7#79	1.833384	$MET1	$L=5.00025e-06
+ $W=2.1e-07	$X=177.37 $Y=73.9875
Rf957	net7#76	net7#81	1.209742	$MET1	$L=5.6725e-06
+ $W=3.2e-07	$X=177.37 $Y=76.501
Rf966	net8#202	net8#201	1.210344	$MET1	$L=9.27e-06
+ $W=3.2e-07	$X=178.07 $Y=92.63
Rf968	net8#208	net8#210	1.022055	$MET1	$L=4.2475e-06
+ $W=3.2e-07	$X=178.07 $Y=71.8635
Rf971	net8#208	net8#213	1.209742	$MET1	$L=5.6725e-06
+ $W=3.2e-07	$X=178.07 $Y=76.501
Rf982	net8#215	net8#218	1.946656	$MET1	$L=8.09e-06
+ $W=3.2e-07	$X=181.33 $Y=156.365
Rf983	net8#218	net8#217	1.210344	$MET1	$L=9.27e-06
+ $W=3.2e-07	$X=181.33 $Y=148.275
Rf985	net8#220	net8#222	2.812305	$MET1	$L=1.16875e-05
+ $W=3.2e-07	$X=181.33 $Y=118.585
Rf986	net8#222	net8#224	1.209742	$MET1	$L=5.6725e-06
+ $W=3.2e-07	$X=181.33 $Y=132.786
Rf989	VDD3A#260	VDD3A#262	1.210344	$MET1	$L=9.27e-06
+ $W=3.2e-07	$X=182.03 $Y=148.275
Rf991	VDD3A#265	VDD3A#267	1.527367	$MET1	$L=6.3475e-06
+ $W=3.2e-07	$X=182.03 $Y=123.925
Rf992	VDD3A#267	VDD3A#269	1.209742	$MET1	$L=5.6725e-06
+ $W=3.2e-07	$X=182.03 $Y=132.786
Rf1016	net7#84	net7#86	1.180717	$MET1	$L=3.22025e-06
+ $W=2.1e-07	$X=183.61 $Y=92.63
Rf1018	net7#84	net7#83	1.210344	$MET1	$L=9.27e-06
+ $W=3.2e-07	$X=183.61 $Y=92.63
Rf1020	net9#93	net9#95	1.022055	$MET1	$L=4.2475e-06
+ $W=3.2e-07	$X=183.61 $Y=71.8635
Rf1021	net9#95	net9#96	1.180717	$MET1	$L=3.22025e-06
+ $W=2.1e-07	$X=183.61 $Y=73.9875
Rf1023	net9#93	net9#98	1.209742	$MET1	$L=5.6725e-06
+ $W=3.2e-07	$X=183.61 $Y=76.501
Rf1028	net8#226	net8#225	1.210344	$MET1	$L=9.27e-06
+ $W=3.2e-07	$X=184.31 $Y=92.63
Rf1030	net8#232	net8#234	1.022055	$MET1	$L=4.2475e-06
+ $W=3.2e-07	$X=184.31 $Y=71.8635
Rf1033	net8#232	net8#237	1.209742	$MET1	$L=5.6725e-06
+ $W=3.2e-07	$X=184.31 $Y=76.501
Rf1044	net8#239	net8#242	1.946656	$MET1	$L=8.09e-06
+ $W=3.2e-07	$X=187.57 $Y=156.365
Rf1045	net8#242	net8#241	1.210344	$MET1	$L=9.27e-06
+ $W=3.2e-07	$X=187.57 $Y=148.275
Rf1047	net8#244	net8#246	2.812305	$MET1	$L=1.16875e-05
+ $W=3.2e-07	$X=187.57 $Y=118.585
Rf1048	net8#246	net8#248	1.209742	$MET1	$L=5.6725e-06
+ $W=3.2e-07	$X=187.57 $Y=132.786
Rf1059	VDD3A#270	VDD3A#272	1.210344	$MET1	$L=9.27e-06
+ $W=3.2e-07	$X=188.27 $Y=148.275
Rf1061	VDD3A#275	VDD3A#277	1.527367	$MET1	$L=6.3475e-06
+ $W=3.2e-07	$X=188.27 $Y=123.925
Rf1062	VDD3A#277	VDD3A#279	1.209742	$MET1	$L=5.6725e-06
+ $W=3.2e-07	$X=188.27 $Y=132.786
Rf1078	net9#101	net9#103	1.833384	$MET1	$L=5.00025e-06
+ $W=2.1e-07	$X=189.85 $Y=92.63
Rf1080	net9#101	net9#100	1.210344	$MET1	$L=9.27e-06
+ $W=3.2e-07	$X=189.85 $Y=92.63
Rf1082	net7#90	net7#92	1.022055	$MET1	$L=4.2475e-06
+ $W=3.2e-07	$X=189.85 $Y=71.8635
Rf1083	net7#92	net7#93	1.833384	$MET1	$L=5.00025e-06
+ $W=2.1e-07	$X=189.85 $Y=73.9875
Rf1085	net7#90	net7#95	1.209742	$MET1	$L=5.6725e-06
+ $W=3.2e-07	$X=189.85 $Y=76.501
Rf1090	net8#250	net8#249	1.210344	$MET1	$L=9.27e-06
+ $W=3.2e-07	$X=190.55 $Y=92.63
Rf1092	net8#256	net8#258	1.022055	$MET1	$L=4.2475e-06
+ $W=3.2e-07	$X=190.55 $Y=71.8635
Rf1095	net8#256	net8#261	1.209742	$MET1	$L=5.6725e-06
+ $W=3.2e-07	$X=190.55 $Y=76.501
Rf1114	net8#263	net8#266	1.946656	$MET1	$L=8.09e-06
+ $W=3.2e-07	$X=193.81 $Y=156.365
Rf1115	net8#266	net8#265	1.210344	$MET1	$L=9.27e-06
+ $W=3.2e-07	$X=193.81 $Y=148.275
Rf1117	net8#268	net8#270	2.812305	$MET1	$L=1.16875e-05
+ $W=3.2e-07	$X=193.81 $Y=118.585
Rf1118	net8#270	net8#272	1.209742	$MET1	$L=5.6725e-06
+ $W=3.2e-07	$X=193.81 $Y=132.786
Rf1125	VDD3A#280	VDD3A#282	1.210344	$MET1	$L=9.27e-06
+ $W=3.2e-07	$X=194.51 $Y=148.275
Rf1127	VDD3A#285	VDD3A#287	1.527367	$MET1	$L=6.3475e-06
+ $W=3.2e-07	$X=194.51 $Y=123.925
Rf1128	VDD3A#287	VDD3A#289	1.209742	$MET1	$L=5.6725e-06
+ $W=3.2e-07	$X=194.51 $Y=132.786
Rf1140	net7#98	net7#100	1.180717	$MET1	$L=3.22025e-06
+ $W=2.1e-07	$X=196.09 $Y=92.63
Rf1142	net7#98	net7#97	1.210344	$MET1	$L=9.27e-06
+ $W=3.2e-07	$X=196.09 $Y=92.63
Rf1144	net9#107	net9#109	1.022055	$MET1	$L=4.2475e-06
+ $W=3.2e-07	$X=196.09 $Y=71.8635
Rf1145	net9#109	net9#110	1.180717	$MET1	$L=3.22025e-06
+ $W=2.1e-07	$X=196.09 $Y=73.9875
Rf1147	net9#107	net9#112	1.209742	$MET1	$L=5.6725e-06
+ $W=3.2e-07	$X=196.09 $Y=76.501
Rf1152	net8#274	net8#273	1.210344	$MET1	$L=9.27e-06
+ $W=3.2e-07	$X=196.79 $Y=92.63
Rf1154	net8#280	net8#282	1.022055	$MET1	$L=4.2475e-06
+ $W=3.2e-07	$X=196.79 $Y=71.8635
Rf1157	net8#280	net8#285	1.209742	$MET1	$L=5.6725e-06
+ $W=3.2e-07	$X=196.79 $Y=76.501
Rf1180	net8#287	net8#290	1.946656	$MET1	$L=8.09e-06
+ $W=3.2e-07	$X=200.05 $Y=156.365
Rf1181	net8#290	net8#289	1.210344	$MET1	$L=9.27e-06
+ $W=3.2e-07	$X=200.05 $Y=148.275
Rf1183	net8#292	net8#294	2.812305	$MET1	$L=1.16875e-05
+ $W=3.2e-07	$X=200.05 $Y=118.585
Rf1184	net8#294	net8#296	1.209742	$MET1	$L=5.6725e-06
+ $W=3.2e-07	$X=200.05 $Y=132.786
Rf1196	net9#115	net9#117	1.928688	$MET1	$L=5.26025e-06
+ $W=2.1e-07	$X=202.33 $Y=92.63
Rf1198	net9#115	net9#114	1.210344	$MET1	$L=9.27e-06
+ $W=3.2e-07	$X=202.33 $Y=92.63
Rf1199	net7#104	net7#106	1.022055	$MET1	$L=4.2475e-06
+ $W=3.2e-07	$X=202.33 $Y=71.8635
Rf1200	net7#106	net7#107	1.928688	$MET1	$L=5.26025e-06
+ $W=2.1e-07	$X=202.33 $Y=73.9875
Rf1202	net7#104	net7#109	1.209742	$MET1	$L=5.6725e-06
+ $W=3.2e-07	$X=202.33 $Y=76.501
Rf1217	VDD3A#290	VDD3A#292	1.210344	$MET1	$L=5.03e-06
+ $W=3.2e-07	$X=206.29 $Y=148.275
Rf1218	VDD3A#292	VDD3A#43	1.114037	$MET1	$L=4.63975e-06
+ $W=3.2e-07	$X=206.29 $Y=140.925
Rf1221	VDD3A#43	VDD3A#298	1.114037	$MET1	$L=4.63975e-06
+ $W=3.2e-07	$X=200.75 $Y=138.605
Rf1222	VDD3A#298	VDD3A#300	1.210344	$MET1	$L=5.03e-06
+ $W=3.2e-07	$X=200.75 $Y=145.76
Rf1226	VDD3A#303	VDD3A#305	1.527367	$MET1	$L=6.3475e-06
+ $W=3.2e-07	$X=200.75 $Y=123.925
Rf1227	VDD3A#305	VDD3A#46	1.209742	$MET1	$L=5.0275e-06
+ $W=3.2e-07	$X=200.75 $Y=132.786
Rf1232	VDD3A#46	VDD3A#311	1.209742	$MET1	$L=5.0275e-06
+ $W=3.2e-07	$X=206.29 $Y=135.3
Rf1233	VDD3A#311	VDD3A#314	1.527367	$MET1	$L=6.3475e-06
+ $W=3.2e-07	$X=206.29 $Y=127.0985
Rf1252	net6#177	net6#183	3.070882	$MET1	$L=5.90348e-05
+ $W=1.48e-06	$X=131.3075 $Y=47.73
Rf1254	net6#183	net6#185	1.381305	$MET1	$L=2.65597e-05
+ $W=1.48e-06	$X=101.79 $Y=44.39
Rf1260	net6#185	net6#191	3.295392	$MET1	$L=6.334e-05
+ $W=1.48e-06	$X=182.535 $Y=17.83
Rf1266	net10#177	net10#183	3.373445	$MET1	$L=6.48503e-05
+ $W=1.48e-06	$X=183.29 $Y=45.95
Rf1268	net10#183	net10#185	1.473913	$MET1	$L=2.83398e-05
+ $W=1.48e-06	$X=215.715 $Y=30.22
Rf1274	net10#185	net10#191	3.007162	$MET1	$L=5.78e-05
+ $W=1.48e-06	$X=131.925 $Y=16.05
Rf1284	net9#120	net9#123	1.584069	$MET1	$L=4.32025e-06
+ $W=2.1e-07	$X=233.445 $Y=23.54
Rf1306	net9#126	net9#129	1.584069	$MET1	$L=4.32025e-06
+ $W=2.1e-07	$X=235.685 $Y=29.93
Rf1319	VB#39	VB#41	1.520750	$MET1	$L=8.78e-06	$W=3.2e-07
+ $X=248.89 $Y=17.58
Rf1329	VB#43	VB#45	1.520750	$MET1	$L=8.78e-06	$W=3.2e-07
+ $X=250.97 $Y=17.58
Rf1367	GNDHV#5	GNDHV	3.163417	$MET1	$L=1.479e-05
+ $W=3.4e-07	$X=281.62 $Y=66.58
Rf1373	GNDHV	GNDHV#5	5.176500	$MET1	$L=1.479e-05
+ $W=6.6e-07	$X=281.33 $Y=59.1875
Rf1399	GNDHV	GNDHV#5	3.163417	$MET1	$L=1.479e-05
+ $W=3.4e-07	$X=283.28 $Y=59.1875
Rf1402	GNDHV#5	GNDHV	5.143436	$MET1	$L=1.507e-05
+ $W=6.4e-07	$X=283.425 $Y=66.58
Rf1462	VDD3A	VDD3A#325	5.475371	$MET1	$L=2.2765e-05
+ $W=3.2e-07	$X=217.86 $Y=83.105
Rf1463	VDD3A#325	VDD3A#326	28.321562	$MET1	$L=0.00011772
+ $W=3.2e-07	$X=159 $Y=60.34
Rf1465	VDD3A#326	VDD3A#328	4.783791	$MET1	$L=1.9925e-05
+ $W=3.2e-07	$X=100.14 $Y=62.3
Rf1470	VDD3A#328	VDD3A	1.153476	$MET1	$L=4.59272e-05
+ $W=3.065e-06	$X=100.2875 $Y=114.845
Rf1478	VDD3A	VDD3A#341	14.448278	$MET1	$L=6.13425e-05
+ $W=3.2e-07	$X=227.22 $Y=157.3725
Rf1479	VDD3A#341	VDD3A#342	31.495407	$MET1	$L=0.00013091
+ $W=3.2e-07	$X=292.675 $Y=96.03
Rf1480	VDD3A#342	VDD3A#343	15.063125	$MET1	$L=6.262e-05
+ $W=3.2e-07	$X=358.13 $Y=96.03
Rf1481	VDD3A#343	VDD3A#344	14.823689	$MET1	$L=6.54553e-05
+ $W=3.2e-07	$X=325.405 $Y=158.65
Rf1484	VDD3A#326	VDD3A#347	2.670323	$MET1	$L=1.16873e-05
+ $W=3.2e-07	$X=109.43 $Y=62.3
Rf1485	VDD3A#347	VDD3A#34	1.209742	$MET1	$L=5.0275e-06
+ $W=3.2e-07	$X=109.43 $Y=76.501
Rf1490	VDD3A#34	VDD3A#353	1.209742	$MET1	$L=5.0275e-06
+ $W=3.2e-07	$X=114.97 $Y=79.015
Rf1491	VDD3A#353	VDD3A#326	2.670323	$MET1	$L=1.16873e-05
+ $W=3.2e-07	$X=114.97 $Y=73.9875
Rf1494	VDD3A#328	VDD3A#360	1.804700	$MET1	$L=8.09025e-06
+ $W=3.2e-07	$X=109.43 $Y=100.72
Rf1495	VDD3A#360	VDD3A#359	1.210344	$MET1	$L=5.03e-06
+ $W=3.2e-07	$X=109.43 $Y=92.63
Rf1496	VDD3A#359	VDD3A#31	1.114037	$MET1	$L=4.63975e-06
+ $W=3.2e-07	$X=109.43 $Y=85.28
Rf1499	VDD3A#31	VDD3A#365	1.114037	$MET1	$L=4.63975e-06
+ $W=3.2e-07	$X=114.97 $Y=82.96
Rf1500	VDD3A#365	VDD3A#367	1.210344	$MET1	$L=5.03e-06
+ $W=3.2e-07	$X=114.97 $Y=90.115
Rf1501	VDD3A#367	VDD3A#328	1.804700	$MET1	$L=8.09025e-06
+ $W=3.2e-07	$X=114.97 $Y=92.63
Rf1503	VDD3A#328	VDD3A#370	13.507426	$MET1	$L=5.96125e-05
+ $W=3.2e-07	$X=130.086 $Y=102.6325
Rf1504	VDD3A#328	VDD3A#371	13.128494	$MET1	$L=5.93423e-05
+ $W=3.2e-07	$X=130.221 $Y=114.845
Rf1506	VDD3A#344	VDD3A	14.878536	$MET1	$L=6.54548e-05
+ $W=3.2e-07	$X=259.95 $Y=158.65
Rf1507	VDD3A#326	VDD3A#372	4.581264	$MET1	$L=8.806e-05
+ $W=1.48e-06	$X=159 $Y=62.3
Rf1508	VDD3A#372	VDD3A#373	2.670323	$MET1	$L=1.16873e-05
+ $W=3.2e-07	$X=203.03 $Y=62.3
Rf1509	VDD3A#373	VDD3A#52	1.209742	$MET1	$L=5.0275e-06
+ $W=3.2e-07	$X=203.03 $Y=76.501
Rf1514	VDD3A#52	VDD3A#379	1.209742	$MET1	$L=5.0275e-06
+ $W=3.2e-07	$X=208.57 $Y=79.015
Rf1515	VDD3A#379	VDD3A#372	2.670323	$MET1	$L=1.16873e-05
+ $W=3.2e-07	$X=208.57 $Y=73.9875
Rf1518	VDD3A#328	VDD3A#384	4.581264	$MET1	$L=8.806e-05
+ $W=1.48e-06	$X=159 $Y=100.72
Rf1519	VDD3A#384	VDD3A#386	1.804700	$MET1	$L=8.09025e-06
+ $W=3.2e-07	$X=203.03 $Y=100.72
Rf1520	VDD3A#386	VDD3A#385	1.210344	$MET1	$L=5.03e-06
+ $W=3.2e-07	$X=203.03 $Y=92.63
Rf1521	VDD3A#385	VDD3A#49	1.114037	$MET1	$L=4.63975e-06
+ $W=3.2e-07	$X=203.03 $Y=85.28
Rf1524	VDD3A#49	VDD3A#391	1.114037	$MET1	$L=4.63975e-06
+ $W=3.2e-07	$X=208.57 $Y=82.96
Rf1525	VDD3A#391	VDD3A#393	1.210344	$MET1	$L=5.03e-06
+ $W=3.2e-07	$X=208.57 $Y=90.115
Rf1526	VDD3A#393	VDD3A#384	1.804700	$MET1	$L=8.09025e-06
+ $W=3.2e-07	$X=208.57 $Y=92.63
Rf1529	VDD3A#370	VDD3A	13.471037	$MET1	$L=5.94825e-05
+ $W=3.2e-07	$X=189.6335 $Y=102.68
Rf1530	VDD3A#371	VDD3A	13.128506	$MET1	$L=5.95127e-05
+ $W=3.2e-07	$X=189.6485 $Y=114.845
Rf1542	GNDA	GNDA#226	37.017536	$MET1	$L=0.000153988
+ $W=3.2e-07	$X=4.325 $Y=9.7875
Rf1543	GNDA#226	GNDA#227	85.682953	$MET1	$L=0.000356105
+ $W=3.2e-07	$X=182.3775 $Y=163.775
Rf1544	GNDA#227	GNDA#228	16.855782	$MET1	$L=7.007e-05
+ $W=3.2e-07	$X=360.43 $Y=163.775
Rf1545	GNDA#228	GNDA#229	25.183813	$MET1	$L=0.00010468
+ $W=3.2e-07	$X=308.09 $Y=93.705
Rf1546	GNDA#229	GNDA	4.879216	$MET1	$L=2.0255e-05
+ $W=3.2e-07	$X=255.2915 $Y=73.45
Rf1558	GNDA	GNDA#242	1.398244	$MET1	$L=5.985e-06
+ $W=3.2e-07	$X=102.8225 $Y=14.09
Rf1559	GNDA#242	GNDA#243	8.561438	$MET1	$L=3.56e-05
+ $W=3.2e-07	$X=99.83 $Y=14.09
Rf1560	GNDA#243	GNDA#244	28.351641	$MET1	$L=0.000117845
+ $W=3.2e-07	$X=158.7525 $Y=49.69
Rf1561	GNDA#244	GNDA#245	8.561438	$MET1	$L=3.56e-05
+ $W=3.2e-07	$X=217.675 $Y=49.69
Rf1562	GNDA#245	GNDA	1.457197	$MET1	$L=6.23e-06
+ $W=3.2e-07	$X=214.56 $Y=14.09
Rf1567	GNDA	GNDA#250	6.689326	$MET1	$L=2.90725e-05
+ $W=3.2e-07	$X=240.2965 $Y=59.15
Rf1568	GNDA#250	GNDA#251	3.436125	$MET1	$L=1.43e-05
+ $W=3.2e-07	$X=225.76 $Y=59.15
Rf1569	GNDA#251	GNDA#252	3.150149	$MET1	$L=1.39097e-05
+ $W=3.2e-07	$X=232.7175 $Y=73.45
Rf1571	GNDA	GNDA#254	1.196840	$MET1	$L=5.07725e-06
+ $W=3.2e-07	$X=228.1435 $Y=14.09
Rf1572	GNDA#254	GNDA#255	6.080594	$MET1	$L=2.529e-05
+ $W=3.2e-07	$X=225.605 $Y=14.09
Rf1573	GNDA#255	GNDA#256	3.186951	$MET1	$L=1.40723e-05
+ $W=3.2e-07	$X=232.6435 $Y=39.38
Rf1576	GNDA	GNDA#259	11.961101	$MET1	$L=5.28153e-05
+ $W=3.2e-07	$X=185.04 $Y=14.09
Rf1577	GNDA#252	GNDA	3.150213	$MET1	$L=1.51628e-05
+ $W=3.2e-07	$X=247.2535 $Y=73.45
Rf1583	GNDA#256	GNDA	3.187015	$MET1	$L=1.52402e-05
+ $W=3.2e-07	$X=247.3 $Y=39.38
Rf1585	GNDA	GNDA#266	18.733807	$MET1	$L=8.09425e-05
+ $W=3.2e-07	$X=46.5215 $Y=51.63
Rf1586	GNDA#266	GNDA#267	4.490968	$MET1	$L=1.98302e-05
+ $W=3.2e-07	$X=6.0525 $Y=51.63
Rf1588	GNDA#259	GNDA	11.960987	$MET1	$L=5.28148e-05
+ $W=3.2e-07	$X=132.225 $Y=14.09
Rf1597	GNDA	GNDA#275	4.471676	$MET1	$L=1.86922e-05
+ $W=3.2e-07	$X=82.12 $Y=77.7625
Rf1598	GNDA#275	GNDA#276	18.299532	$MET1	$L=7.607e-05
+ $W=3.2e-07	$X=44.085 $Y=59.07
Rf1599	GNDA#276	GNDA	4.061892	$MET1	$L=1.68975e-05
+ $W=3.2e-07	$X=6.05 $Y=59.07
Rf1602	GNDA#267	GNDA	4.490908	$MET1	$L=2.20123e-05
+ $W=3.2e-07	$X=6.05 $Y=20.796
Rf1609	GNDA	GNDA#285	3.675674	$MET1	$L=1.53953e-05
+ $W=3.2e-07	$X=10.675 $Y=77.715
Rf1610	GNDA#285	GNDA#286	6.076984	$MET1	$L=2.5275e-05
+ $W=3.2e-07	$X=23.3125 $Y=93.11
Rf1611	GNDA#286	GNDA	3.398544	$MET1	$L=1.53953e-05
+ $W=3.2e-07	$X=35.581 $Y=77.715
Rf1628	GNDA	GNDA#303	1.104625	$MET1	$L=3.157e-05
+ $W=2.2e-06	$X=31.695 $Y=111.18
Rf1632	GNDA#303	GNDA#307	4.297433	$MET1	$L=1.88097e-05
+ $W=3.2e-07	$X=15.91 $Y=133.68
Rf1633	GNDA	GNDA#308	1.269509	$MET1	$L=7.8975e-06
+ $W=3.2e-07	$X=33.925 $Y=81.316
Rf1634	GNDA	GNDA#310	1.269509	$MET1	$L=7.8975e-06
+ $W=3.2e-07	$X=32.145 $Y=81.316
Rf1635	GNDA	GNDA#312	1.269510	$MET1	$L=7.8975e-06
+ $W=3.2e-07	$X=30.365 $Y=81.316
Rf1636	GNDA	GNDA#314	1.269509	$MET1	$L=7.8975e-06
+ $W=3.2e-07	$X=28.35 $Y=81.316
Rf1637	GNDA	GNDA#316	1.269509	$MET1	$L=7.8975e-06
+ $W=3.2e-07	$X=26.57 $Y=81.316
Rf1638	GNDA	GNDA#318	1.269510	$MET1	$L=7.8975e-06
+ $W=3.2e-07	$X=24.79 $Y=81.316
Rf1639	GNDA	GNDA#321	1.009493	$MET1	$L=5.265e-06
+ $W=3.2e-07	$X=18.23 $Y=77.715
Rf1640	GNDA	GNDA#323	1.009493	$MET1	$L=5.265e-06
+ $W=3.2e-07	$X=14.07 $Y=77.715
Rf1643	GNDA	GNDA#325	1.104625	$MET1	$L=3.157e-05
+ $W=2.2e-06	$X=63.265 $Y=111.18
Rf1644	GNDA#325	GNDA#326	4.630580	$MET1	$L=1.93097e-05
+ $W=3.2e-07	$X=79.05 $Y=111.18
Rf1645	GNDA#303	GNDA#327	4.417746	$MET1	$L=1.93097e-05
+ $W=3.2e-07	$X=15.91 $Y=111.18
Rf1646	GNDA#303	GNDA#328	1.068793	$MET1	$L=3.054e-05
+ $W=2.2e-06	$X=31.18 $Y=133.68
Rf1647	GNDA#328	GNDA#329	4.297433	$MET1	$L=1.88097e-05
+ $W=3.2e-07	$X=46.45 $Y=133.68
Rf1650	GNDA#328	GNDA#331	4.297433	$MET1	$L=1.88097e-05
+ $W=3.2e-07	$X=48.51 $Y=133.68
[...]
+ $W=3.6e-07	$A=1.296e-13	$N=1.0000	$X=290.32 $Y=120.34
Rj928	net9#645	net9#307	2.000000	$vtpcm	$L=3.6e-07
+ $W=3.6e-07	$A=1.296e-13	$N=1.0000	$X=290.32 $Y=117.88
Rj929	net9#645	net9#307	2.000000	$vtpcm	$L=3.6e-07
+ $W=3.6e-07	$A=1.296e-13	$N=1.0000	$X=290.32 $Y=115.42
Rj930	net9#645	net9#307	2.000000	$vtpcm	$L=3.6e-07
+ $W=3.6e-07	$A=1.296e-13	$N=1.0000	$X=290.32 $Y=112.96
Rj931	net9#645	net9#307	2.000000	$vtpcm	$L=3.6e-07
+ $W=3.6e-07	$A=1.296e-13	$N=1.0000	$X=290.32 $Y=110.5
Rj932	net9#645	net9#307	2.000000	$vtpcm	$L=3.6e-07
+ $W=3.6e-07	$A=1.296e-13	$N=1.0000	$X=290.32 $Y=108.04
Rj933	net9#645	net9#307	2.000000	$vtpcm	$L=3.6e-07
+ $W=3.6e-07	$A=1.296e-13	$N=1.0000	$X=290.32 $Y=105.585
Rj934	net9#645	net9#307	2.000000	$vtpcm	$L=3.6e-07
+ $W=3.6e-07	$A=1.296e-13	$N=1.0000	$X=290.32 $Y=103.13
Rj935	net9#645	net9#307	2.000000	$vtpcm	$L=3.6e-07
+ $W=3.6e-07	$A=1.296e-13	$N=1.0000	$X=290.32 $Y=100.675
Rj936	net9#645	net9#307	2.000000	$vtpcm	$L=3.6e-07
+ $W=3.6e-07	$A=1.296e-13	$N=1.0000	$X=290.32 $Y=98.22
Rj937	net9#645	net9#307	2.000000	$vtpcm	$L=3.6e-07
+ $W=3.6e-07	$A=1.296e-13	$N=1.0000	$X=292.74 $Y=125.26
Rj938	net9#645	net9#307	2.000000	$vtpcm	$L=3.6e-07
+ $W=3.6e-07	$A=1.296e-13	$N=1.0000	$X=292.74 $Y=122.8
Rj939	net9#645	net9#307	2.000000	$vtpcm	$L=3.6e-07
+ $W=3.6e-07	$A=1.296e-13	$N=1.0000	$X=292.74 $Y=120.34
Rj940	net9#645	net9#307	2.000000	$vtpcm	$L=3.6e-07
+ $W=3.6e-07	$A=1.296e-13	$N=1.0000	$X=292.74 $Y=117.88
Rj941	net9#645	net9#307	2.000000	$vtpcm	$L=3.6e-07
+ $W=3.6e-07	$A=1.296e-13	$N=1.0000	$X=292.74 $Y=115.42
Rj942	net9#645	net9#307	2.000000	$vtpcm	$L=3.6e-07
+ $W=3.6e-07	$A=1.296e-13	$N=1.0000	$X=292.74 $Y=112.96
Rj943	net9#645	net9#307	2.000000	$vtpcm	$L=3.6e-07
+ $W=3.6e-07	$A=1.296e-13	$N=1.0000	$X=292.74 $Y=110.5
Rj944	net9#645	net9#307	2.000000	$vtpcm	$L=3.6e-07
+ $W=3.6e-07	$A=1.296e-13	$N=1.0000	$X=292.74 $Y=108.04
Rj945	net9#645	net9#307	2.000000	$vtpcm	$L=3.6e-07
+ $W=3.6e-07	$A=1.296e-13	$N=1.0000	$X=292.74 $Y=105.585
Rj946	net9#645	net9#307	2.000000	$vtpcm	$L=3.6e-07
+ $W=3.6e-07	$A=1.296e-13	$N=1.0000	$X=292.74 $Y=103.13
Rj947	net9#645	net9#307	2.000000	$vtpcm	$L=3.6e-07
+ $W=3.6e-07	$A=1.296e-13	$N=1.0000	$X=292.74 $Y=100.675
Rj948	net9#645	net9#307	2.000000	$vtpcm	$L=3.6e-07
+ $W=3.6e-07	$A=1.296e-13	$N=1.0000	$X=292.74 $Y=98.22
Rj949	net9#731	net9#307	2.000000	$vtpcm	$L=3.6e-07
+ $W=3.6e-07	$A=1.296e-13	$N=1.0000	$X=280.64 $Y=156.46
Rj950	net9#731	net9#307	2.000000	$vtpcm	$L=3.6e-07
+ $W=3.6e-07	$A=1.296e-13	$N=1.0000	$X=280.64 $Y=154
Rj951	net9#731	net9#307	2.000000	$vtpcm	$L=3.6e-07
+ $W=3.6e-07	$A=1.296e-13	$N=1.0000	$X=280.64 $Y=151.54
Rj952	net9#731	net9#307	2.000000	$vtpcm	$L=3.6e-07
+ $W=3.6e-07	$A=1.296e-13	$N=1.0000	$X=280.64 $Y=149.08
Rj953	net9#731	net9#307	2.000000	$vtpcm	$L=3.6e-07
+ $W=3.6e-07	$A=1.296e-13	$N=1.0000	$X=280.64 $Y=146.62
Rj954	net9#731	net9#307	2.000000	$vtpcm	$L=3.6e-07
+ $W=3.6e-07	$A=1.296e-13	$N=1.0000	$X=280.64 $Y=144.16
Rj955	net9#731	net9#307	2.000000	$vtpcm	$L=3.6e-07
+ $W=3.6e-07	$A=1.296e-13	$N=1.0000	$X=280.64 $Y=141.7
Rj956	net9#731	net9#307	2.000000	$vtpcm	$L=3.6e-07
+ $W=3.6e-07	$A=1.296e-13	$N=1.0000	$X=280.64 $Y=139.24
Rj957	net9#731	net9#307	2.000000	$vtpcm	$L=3.6e-07
+ $W=3.6e-07	$A=1.296e-13	$N=1.0000	$X=280.64 $Y=136.785
Rj958	net9#731	net9#307	2.000000	$vtpcm	$L=3.6e-07
+ $W=3.6e-07	$A=1.296e-13	$N=1.0000	$X=280.64 $Y=134.33
Rj959	net9#731	net9#307	2.000000	$vtpcm	$L=3.6e-07
+ $W=3.6e-07	$A=1.296e-13	$N=1.0000	$X=280.64 $Y=131.875
Rj960	net9#731	net9#307	2.000000	$vtpcm	$L=3.6e-07
+ $W=3.6e-07	$A=1.296e-13	$N=1.0000	$X=280.64 $Y=129.42
Rj961	net9#731	net9#307	2.000000	$vtpcm	$L=3.6e-07
+ $W=3.6e-07	$A=1.296e-13	$N=1.0000	$X=283.06 $Y=156.46
Rj962	net9#731	net9#307	2.000000	$vtpcm	$L=3.6e-07
+ $W=3.6e-07	$A=1.296e-13	$N=1.0000	$X=283.06 $Y=154
Rj963	net9#731	net9#307	2.000000	$vtpcm	$L=3.6e-07
+ $W=3.6e-07	$A=1.296e-13	$N=1.0000	$X=283.06 $Y=151.54
Rj964	net9#731	net9#307	2.000000	$vtpcm	$L=3.6e-07
+ $W=3.6e-07	$A=1.296e-13	$N=1.0000	$X=283.06 $Y=149.08
Rj965	net9#731	net9#307	2.000000	$vtpcm	$L=3.6e-07
+ $W=3.6e-07	$A=1.296e-13	$N=1.0000	$X=283.06 $Y=146.62
Rj966	net9#731	net9#307	2.000000	$vtpcm	$L=3.6e-07
+ $W=3.6e-07	$A=1.296e-13	$N=1.0000	$X=283.06 $Y=144.16
Rj967	net9#731	net9#307	2.000000	$vtpcm	$L=3.6e-07
+ $W=3.6e-07	$A=1.296e-13	$N=1.0000	$X=283.06 $Y=141.7
Rj968	net9#731	net9#307	2.000000	$vtpcm	$L=3.6e-07
+ $W=3.6e-07	$A=1.296e-13	$N=1.0000	$X=283.06 $Y=139.24
Rj969	net9#731	net9#307	2.000000	$vtpcm	$L=3.6e-07
+ $W=3.6e-07	$A=1.296e-13	$N=1.0000	$X=283.06 $Y=136.785
Rj970	net9#731	net9#307	2.000000	$vtpcm	$L=3.6e-07
+ $W=3.6e-07	$A=1.296e-13	$N=1.0000	$X=283.06 $Y=134.33
Rj971	net9#731	net9#307	2.000000	$vtpcm	$L=3.6e-07
+ $W=3.6e-07	$A=1.296e-13	$N=1.0000	$X=283.06 $Y=131.875
Rj972	net9#731	net9#307	2.000000	$vtpcm	$L=3.6e-07
+ $W=3.6e-07	$A=1.296e-13	$N=1.0000	$X=283.06 $Y=129.42
Rj973	net9#731	net9#307	2.000000	$vtpcm	$L=3.6e-07
+ $W=3.6e-07	$A=1.296e-13	$N=1.0000	$X=285.48 $Y=156.46
Rj974	net9#731	net9#307	2.000000	$vtpcm	$L=3.6e-07
+ $W=3.6e-07	$A=1.296e-13	$N=1.0000	$X=285.48 $Y=154
Rj975	net9#731	net9#307	2.000000	$vtpcm	$L=3.6e-07
+ $W=3.6e-07	$A=1.296e-13	$N=1.0000	$X=285.48 $Y=151.54
Rj976	net9#731	net9#307	2.000000	$vtpcm	$L=3.6e-07
+ $W=3.6e-07	$A=1.296e-13	$N=1.0000	$X=285.48 $Y=149.08
Rj977	net9#731	net9#307	2.000000	$vtpcm	$L=3.6e-07
+ $W=3.6e-07	$A=1.296e-13	$N=1.0000	$X=285.48 $Y=146.62
Rj978	net9#731	net9#307	2.000000	$vtpcm	$L=3.6e-07
+ $W=3.6e-07	$A=1.296e-13	$N=1.0000	$X=285.48 $Y=144.16
Rj979	net9#731	net9#307	2.000000	$vtpcm	$L=3.6e-07
+ $W=3.6e-07	$A=1.296e-13	$N=1.0000	$X=285.48 $Y=141.7
Rj980	net9#731	net9#307	2.000000	$vtpcm	$L=3.6e-07
+ $W=3.6e-07	$A=1.296e-13	$N=1.0000	$X=285.48 $Y=139.24
Rj981	net9#731	net9#307	2.000000	$vtpcm	$L=3.6e-07
+ $W=3.6e-07	$A=1.296e-13	$N=1.0000	$X=285.48 $Y=136.785
Rj982	net9#731	net9#307	2.000000	$vtpcm	$L=3.6e-07
+ $W=3.6e-07	$A=1.296e-13	$N=1.0000	$X=285.48 $Y=134.33
Rj983	net9#731	net9#307	2.000000	$vtpcm	$L=3.6e-07
+ $W=3.6e-07	$A=1.296e-13	$N=1.0000	$X=285.48 $Y=131.875
Rj984	net9#731	net9#307	2.000000	$vtpcm	$L=3.6e-07
+ $W=3.6e-07	$A=1.296e-13	$N=1.0000	$X=285.48 $Y=129.42
Rj985	net9#731	net9#307	2.000000	$vtpcm	$L=3.6e-07
+ $W=3.6e-07	$A=1.296e-13	$N=1.0000	$X=287.9 $Y=156.46
Rj986	net9#731	net9#307	2.000000	$vtpcm	$L=3.6e-07
+ $W=3.6e-07	$A=1.296e-13	$N=1.0000	$X=287.9 $Y=154
Rj987	net9#731	net9#307	2.000000	$vtpcm	$L=3.6e-07
+ $W=3.6e-07	$A=1.296e-13	$N=1.0000	$X=287.9 $Y=151.54
Rj988	net9#731	net9#307	2.000000	$vtpcm	$L=3.6e-07
+ $W=3.6e-07	$A=1.296e-13	$N=1.0000	$X=287.9 $Y=149.08
Rj989	net9#731	net9#307	2.000000	$vtpcm	$L=3.6e-07
+ $W=3.6e-07	$A=1.296e-13	$N=1.0000	$X=287.9 $Y=146.62
Rj990	net9#731	net9#307	2.000000	$vtpcm	$L=3.6e-07
+ $W=3.6e-07	$A=1.296e-13	$N=1.0000	$X=287.9 $Y=144.16
Rj991	net9#731	net9#307	2.000000	$vtpcm	$L=3.6e-07
+ $W=3.6e-07	$A=1.296e-13	$N=1.0000	$X=287.9 $Y=141.7
Rj992	net9#731	net9#307	2.000000	$vtpcm	$L=3.6e-07
+ $W=3.6e-07	$A=1.296e-13	$N=1.0000	$X=287.9 $Y=139.24
Rj993	net9#731	net9#307	2.000000	$vtpcm	$L=3.6e-07
+ $W=3.6e-07	$A=1.296e-13	$N=1.0000	$X=287.9 $Y=136.785
Rj994	net9#731	net9#307	2.000000	$vtpcm	$L=3.6e-07
+ $W=3.6e-07	$A=1.296e-13	$N=1.0000	$X=287.9 $Y=134.33
Rj995	net9#731	net9#307	2.000000	$vtpcm	$L=3.6e-07
+ $W=3.6e-07	$A=1.296e-13	$N=1.0000	$X=287.9 $Y=131.875
Rj996	net9#731	net9#307	2.000000	$vtpcm	$L=3.6e-07
+ $W=3.6e-07	$A=1.296e-13	$N=1.0000	$X=287.9 $Y=129.42
Rj997	net9#731	net9#307	2.000000	$vtpcm	$L=3.6e-07
+ $W=3.6e-07	$A=1.296e-13	$N=1.0000	$X=290.32 $Y=156.46
Rj998	net9#731	net9#307	2.000000	$vtpcm	$L=3.6e-07
+ $W=3.6e-07	$A=1.296e-13	$N=1.0000	$X=290.32 $Y=154
Rj999	net9#731	net9#307	2.000000	$vtpcm	$L=3.6e-07
+ $W=3.6e-07	$A=1.296e-13	$N=1.0000	$X=290.32 $Y=151.54
Rj1000	net9#731	net9#307	2.000000	$vtpcm	$L=3.6e-07
+ $W=3.6e-07	$A=1.296e-13	$N=1.0000	$X=290.32 $Y=149.08
Rj1001	net9#731	net9#307	2.000000	$vtpcm	$L=3.6e-07
+ $W=3.6e-07	$A=1.296e-13	$N=1.0000	$X=290.32 $Y=146.62
Rj1002	net9#731	net9#307	2.000000	$vtpcm	$L=3.6e-07
+ $W=3.6e-07	$A=1.296e-13	$N=1.0000	$X=290.32 $Y=144.16
Rj1003	net9#731	net9#307	2.000000	$vtpcm	$L=3.6e-07
+ $W=3.6e-07	$A=1.296e-13	$N=1.0000	$X=290.32 $Y=141.7
Rj1004	net9#731	net9#307	2.000000	$vtpcm	$L=3.6e-07
+ $W=3.6e-07	$A=1.296e-13	$N=1.0000	$X=290.32 $Y=139.24
Rj1005	net9#731	net9#307	2.000000	$vtpcm	$L=3.6e-07
+ $W=3.6e-07	$A=1.296e-13	$N=1.0000	$X=290.32 $Y=136.785
Rj1006	net9#731	net9#307	2.000000	$vtpcm	$L=3.6e-07
+ $W=3.6e-07	$A=1.296e-13	$N=1.0000	$X=290.32 $Y=134.33
Rj1007	net9#731	net9#307	2.000000	$vtpcm	$L=3.6e-07
+ $W=3.6e-07	$A=1.296e-13	$N=1.0000	$X=290.32 $Y=131.875
Rj1008	net9#731	net9#307	2.000000	$vtpcm	$L=3.6e-07
+ $W=3.6e-07	$A=1.296e-13	$N=1.0000	$X=290.32 $Y=129.42
Rj1009	net9#731	net9#307	2.000000	$vtpcm	$L=3.6e-07
+ $W=3.6e-07	$A=1.296e-13	$N=1.0000	$X=292.74 $Y=156.46
Rj1010	net9#731	net9#307	2.000000	$vtpcm	$L=3.6e-07
+ $W=3.6e-07	$A=1.296e-13	$N=1.0000	$X=292.74 $Y=154
Rj1011	net9#731	net9#307	2.000000	$vtpcm	$L=3.6e-07
+ $W=3.6e-07	$A=1.296e-13	$N=1.0000	$X=292.74 $Y=151.54
Rj1012	net9#731	net9#307	2.000000	$vtpcm	$L=3.6e-07
+ $W=3.6e-07	$A=1.296e-13	$N=1.0000	$X=292.74 $Y=149.08
Rj1013	net9#731	net9#307	2.000000	$vtpcm	$L=3.6e-07
+ $W=3.6e-07	$A=1.296e-13	$N=1.0000	$X=292.74 $Y=146.62
Rj1014	net9#731	net9#307	2.000000	$vtpcm	$L=3.6e-07
+ $W=3.6e-07	$A=1.296e-13	$N=1.0000	$X=292.74 $Y=144.16
Rj1015	net9#731	net9#307	2.000000	$vtpcm	$L=3.6e-07
+ $W=3.6e-07	$A=1.296e-13	$N=1.0000	$X=292.74 $Y=141.7
Rj1016	net9#731	net9#307	2.000000	$vtpcm	$L=3.6e-07
+ $W=3.6e-07	$A=1.296e-13	$N=1.0000	$X=292.74 $Y=139.24
Rj1017	net9#731	net9#307	2.000000	$vtpcm	$L=3.6e-07
+ $W=3.6e-07	$A=1.296e-13	$N=1.0000	$X=292.74 $Y=136.785
Rj1018	net9#731	net9#307	2.000000	$vtpcm	$L=3.6e-07
+ $W=3.6e-07	$A=1.296e-13	$N=1.0000	$X=292.74 $Y=134.33
Rj1019	net9#731	net9#307	2.000000	$vtpcm	$L=3.6e-07
+ $W=3.6e-07	$A=1.296e-13	$N=1.0000	$X=292.74 $Y=131.875
Rj1020	net9#731	net9#307	2.000000	$vtpcm	$L=3.6e-07
+ $W=3.6e-07	$A=1.296e-13	$N=1.0000	$X=292.74 $Y=129.42
Rj1021	net9#817	net9#155	2.000000	$vtpcm	$L=3.6e-07
+ $W=3.6e-07	$A=1.296e-13	$N=1.0000	$X=249.04 $Y=156.46
Rj1022	net9#817	net9#155	2.000000	$vtpcm	$L=3.6e-07
+ $W=3.6e-07	$A=1.296e-13	$N=1.0000	$X=249.04 $Y=154
Rj1023	net9#817	net9#155	2.000000	$vtpcm	$L=3.6e-07
+ $W=3.6e-07	$A=1.296e-13	$N=1.0000	$X=249.04 $Y=151.54
Rj1024	net9#817	net9#155	2.000000	$vtpcm	$L=3.6e-07
+ $W=3.6e-07	$A=1.296e-13	$N=1.0000	$X=249.04 $Y=149.08
Rj1025	net9#817	net9#155	2.000000	$vtpcm	$L=3.6e-07
+ $W=3.6e-07	$A=1.296e-13	$N=1.0000	$X=249.04 $Y=146.62
Rj1026	net9#817	net9#155	2.000000	$vtpcm	$L=3.6e-07
+ $W=3.6e-07	$A=1.296e-13	$N=1.0000	$X=249.04 $Y=144.16
Rj1027	net9#817	net9#155	2.000000	$vtpcm	$L=3.6e-07
+ $W=3.6e-07	$A=1.296e-13	$N=1.0000	$X=249.04 $Y=141.7
Rj1028	net9#817	net9#155	2.000000	$vtpcm	$L=3.6e-07
+ $W=3.6e-07	$A=1.296e-13	$N=1.0000	$X=249.04 $Y=139.24
Rj1029	net9#817	net9#155	2.000000	$vtpcm	$L=3.6e-07
+ $W=3.6e-07	$A=1.296e-13	$N=1.0000	$X=249.04 $Y=136.785
Rj1030	net9#817	net9#155	2.000000	$vtpcm	$L=3.6e-07
+ $W=3.6e-07	$A=1.296e-13	$N=1.0000	$X=249.04 $Y=134.33
Rj1031	net9#817	net9#155	2.000000	$vtpcm	$L=3.6e-07
+ $W=3.6e-07	$A=1.296e-13	$N=1.0000	$X=249.04 $Y=131.875
Rj1032	net9#817	net9#155	2.000000	$vtpcm	$L=3.6e-07
+ $W=3.6e-07	$A=1.296e-13	$N=1.0000	$X=249.04 $Y=129.42
Rj1033	net9#817	net9#155	2.000000	$vtpcm	$L=3.6e-07
+ $W=3.6e-07	$A=1.296e-13	$N=1.0000	$X=251.46 $Y=156.46
Rj1034	net9#817	net9#155	2.000000	$vtpcm	$L=3.6e-07
+ $W=3.6e-07	$A=1.296e-13	$N=1.0000	$X=251.46 $Y=154
Rj1035	net9#817	net9#155	2.000000	$vtpcm	$L=3.6e-07
+ $W=3.6e-07	$A=1.296e-13	$N=1.0000	$X=251.46 $Y=151.54
Rj1036	net9#817	net9#155	2.000000	$vtpcm	$L=3.6e-07
+ $W=3.6e-07	$A=1.296e-13	$N=1.0000	$X=251.46 $Y=149.08
Rj1037	net9#817	net9#155	2.000000	$vtpcm	$L=3.6e-07
+ $W=3.6e-07	$A=1.296e-13	$N=1.0000	$X=251.46 $Y=146.62
Rj1038	net9#817	net9#155	2.000000	$vtpcm	$L=3.6e-07
+ $W=3.6e-07	$A=1.296e-13	$N=1.0000	$X=251.46 $Y=144.16
Rj1039	net9#817	net9#155	2.000000	$vtpcm	$L=3.6e-07
+ $W=3.6e-07	$A=1.296e-13	$N=1.0000	$X=251.46 $Y=141.7
Rj1040	net9#817	net9#155	2.000000	$vtpcm	$L=3.6e-07
+ $W=3.6e-07	$A=1.296e-13	$N=1.0000	$X=251.46 $Y=139.24
Rj1041	net9#817	net9#155	2.000000	$vtpcm	$L=3.6e-07
+ $W=3.6e-07	$A=1.296e-13	$N=1.0000	$X=251.46 $Y=136.785
Rj1042	net9#817	net9#155	2.000000	$vtpcm	$L=3.6e-07
+ $W=3.6e-07	$A=1.296e-13	$N=1.0000	$X=251.46 $Y=134.33
Rj1043	net9#817	net9#155	2.000000	$vtpcm	$L=3.6e-07
+ $W=3.6e-07	$A=1.296e-13	$N=1.0000	$X=251.46 $Y=131.875
Rj1044	net9#817	net9#155	2.000000	$vtpcm	$L=3.6e-07
+ $W=3.6e-07	$A=1.296e-13	$N=1.0000	$X=251.46 $Y=129.42
Rj1045	net9#817	net9#155	2.000000	$vtpcm	$L=3.6e-07
+ $W=3.6e-07	$A=1.296e-13	$N=1.0000	$X=253.88 $Y=156.46
Rj1046	net9#817	net9#155	2.000000	$vtpcm	$L=3.6e-07
+ $W=3.6e-07	$A=1.296e-13	$N=1.0000	$X=253.88 $Y=154
Rj1047	net9#817	net9#155	2.000000	$vtpcm	$L=3.6e-07
+ $W=3.6e-07	$A=1.296e-13	$N=1.0000	$X=253.88 $Y=151.54
Rj1048	net9#817	net9#155	2.000000	$vtpcm	$L=3.6e-07
+ $W=3.6e-07	$A=1.296e-13	$N=1.0000	$X=253.88 $Y=149.08
Rj1049	net9#817	net9#155	2.000000	$vtpcm	$L=3.6e-07
+ $W=3.6e-07	$A=1.296e-13	$N=1.0000	$X=253.88 $Y=146.62
Rj1050	net9#817	net9#155	2.000000	$vtpcm	$L=3.6e-07
+ $W=3.6e-07	$A=1.296e-13	$N=1.0000	$X=253.88 $Y=144.16
Rj1051	net9#817	net9#155	2.000000	$vtpcm	$L=3.6e-07
+ $W=3.6e-07	$A=1.296e-13	$N=1.0000	$X=253.88 $Y=141.7
Rj1052	net9#817	net9#155	2.000000	$vtpcm	$L=3.6e-07
+ $W=3.6e-07	$A=1.296e-13	$N=1.0000	$X=253.88 $Y=139.24
Rj1053	net9#817	net9#155	2.000000	$vtpcm	$L=3.6e-07
+ $W=3.6e-07	$A=1.296e-13	$N=1.0000	$X=253.88 $Y=136.785
Rj1054	net9#817	net9#155	2.000000	$vtpcm	$L=3.6e-07
+ $W=3.6e-07	$A=1.296e-13	$N=1.0000	$X=253.88 $Y=134.33
Rj1055	net9#817	net9#155	2.000000	$vtpcm	$L=3.6e-07
+ $W=3.6e-07	$A=1.296e-13	$N=1.0000	$X=253.88 $Y=131.875
Rj1056	net9#817	net9#155	2.000000	$vtpcm	$L=3.6e-07
+ $W=3.6e-07	$A=1.296e-13	$N=1.0000	$X=253.88 $Y=129.42
Rj1057	net9#817	net9#155	2.000000	$vtpcm	$L=3.6e-07
+ $W=3.6e-07	$A=1.296e-13	$N=1.0000	$X=256.3 $Y=156.46
Rj1058	net9#817	net9#155	2.000000	$vtpcm	$L=3.6e-07
+ $W=3.6e-07	$A=1.296e-13	$N=1.0000	$X=256.3 $Y=154
Rj1059	net9#817	net9#155	2.000000	$vtpcm	$L=3.6e-07
+ $W=3.6e-07	$A=1.296e-13	$N=1.0000	$X=256.3 $Y=151.54
Rj1060	net9#817	net9#155	2.000000	$vtpcm	$L=3.6e-07
+ $W=3.6e-07	$A=1.296e-13	$N=1.0000	$X=256.3 $Y=149.08
Rj1061	net9#817	net9#155	2.000000	$vtpcm	$L=3.6e-07
+ $W=3.6e-07	$A=1.296e-13	$N=1.0000	$X=256.3 $Y=146.62
Rj1062	net9#817	net9#155	2.000000	$vtpcm	$L=3.6e-07
+ $W=3.6e-07	$A=1.296e-13	$N=1.0000	$X=256.3 $Y=144.16
Rj1063	net9#817	net9#155	2.000000	$vtpcm	$L=3.6e-07
+ $W=3.6e-07	$A=1.296e-13	$N=1.0000	$X=256.3 $Y=141.7
Rj1064	net9#817	net9#155	2.000000	$vtpcm	$L=3.6e-07
+ $W=3.6e-07	$A=1.296e-13	$N=1.0000	$X=256.3 $Y=139.24
Rj1065	net9#817	net9#155	2.000000	$vtpcm	$L=3.6e-07
+ $W=3.6e-07	$A=1.296e-13	$N=1.0000	$X=256.3 $Y=136.785
Rj1066	net9#817	net9#155	2.000000	$vtpcm	$L=3.6e-07
+ $W=3.6e-07	$A=1.296e-13	$N=1.0000	$X=256.3 $Y=134.33
Rj1067	net9#817	net9#155	2.000000	$vtpcm	$L=3.6e-07
+ $W=3.6e-07	$A=1.296e-13	$N=1.0000	$X=256.3 $Y=131.875
Rj1068	net9#817	net9#155	2.000000	$vtpcm	$L=3.6e-07
+ $W=3.6e-07	$A=1.296e-13	$N=1.0000	$X=256.3 $Y=129.42
Rj1069	net9#817	net9#155	2.000000	$vtpcm	$L=3.6e-07
+ $W=3.6e-07	$A=1.296e-13	$N=1.0000	$X=258.72 $Y=156.46
Rj1070	net9#817	net9#155	2.000000	$vtpcm	$L=3.6e-07
+ $W=3.6e-07	$A=1.296e-13	$N=1.0000	$X=258.72 $Y=154
Rj1071	net9#817	net9#155	2.000000	$vtpcm	$L=3.6e-07
+ $W=3.6e-07	$A=1.296e-13	$N=1.0000	$X=258.72 $Y=151.54
Rj1072	net9#817	net9#155	2.000000	$vtpcm	$L=3.6e-07
+ $W=3.6e-07	$A=1.296e-13	$N=1.0000	$X=258.72 $Y=149.08
Rj1073	net9#817	net9#155	2.000000	$vtpcm	$L=3.6e-07
+ $W=3.6e-07	$A=1.296e-13	$N=1.0000	$X=258.72 $Y=146.62
Rj1074	net9#817	net9#155	2.000000	$vtpcm	$L=3.6e-07
+ $W=3.6e-07	$A=1.296e-13	$N=1.0000	$X=258.72 $Y=144.16
Rj1075	net9#817	net9#155	2.000000	$vtpcm	$L=3.6e-07
+ $W=3.6e-07	$A=1.296e-13	$N=1.0000	$X=258.72 $Y=141.7
Rj1076	net9#817	net9#155	2.000000	$vtpcm	$L=3.6e-07
+ $W=3.6e-07	$A=1.296e-13	$N=1.0000	$X=258.72 $Y=139.24
Rj1077	net9#817	net9#155	2.000000	$vtpcm	$L=3.6e-07
+ $W=3.6e-07	$A=1.296e-13	$N=1.0000	$X=258.72 $Y=136.785
Rj1078	net9#817	net9#155	2.000000	$vtpcm	$L=3.6e-07
+ $W=3.6e-07	$A=1.296e-13	$N=1.0000	$X=258.72 $Y=134.33
Rj1079	net9#817	net9#155	2.000000	$vtpcm	$L=3.6e-07
+ $W=3.6e-07	$A=1.296e-13	$N=1.0000	$X=258.72 $Y=131.875
Rj1080	net9#817	net9#155	2.000000	$vtpcm	$L=3.6e-07
+ $W=3.6e-07	$A=1.296e-13	$N=1.0000	$X=258.72 $Y=129.42
Rj1081	net9#817	net9#155	2.000000	$vtpcm	$L=3.6e-07
+ $W=3.6e-07	$A=1.296e-13	$N=1.0000	$X=261.14 $Y=156.46
Rj1082	net9#817	net9#155	2.000000	$vtpcm	$L=3.6e-07
+ $W=3.6e-07	$A=1.296e-13	$N=1.0000	$X=261.14 $Y=154
Rj1083	net9#817	net9#155	2.000000	$vtpcm	$L=3.6e-07
+ $W=3.6e-07	$A=1.296e-13	$N=1.0000	$X=261.14 $Y=151.54
Rj1084	net9#817	net9#155	2.000000	$vtpcm	$L=3.6e-07
+ $W=3.6e-07	$A=1.296e-13	$N=1.0000	$X=261.14 $Y=149.08
Rj1085	net9#817	net9#155	2.000000	$vtpcm	$L=3.6e-07
+ $W=3.6e-07	$A=1.296e-13	$N=1.0000	$X=261.14 $Y=146.62
Rj1086	net9#817	net9#155	2.000000	$vtpcm	$L=3.6e-07
+ $W=3.6e-07	$A=1.296e-13	$N=1.0000	$X=261.14 $Y=144.16
Rj1087	net9#817	net9#155	2.000000	$vtpcm	$L=3.6e-07
+ $W=3.6e-07	$A=1.296e-13	$N=1.0000	$X=261.14 $Y=141.7
Rj1088	net9#817	net9#155	2.000000	$vtpcm	$L=3.6e-07
+ $W=3.6e-07	$A=1.296e-13	$N=1.0000	$X=261.14 $Y=139.24
Rj1089	net9#817	net9#155	2.000000	$vtpcm	$L=3.6e-07
+ $W=3.6e-07	$A=1.296e-13	$N=1.0000	$X=261.14 $Y=136.785
Rj1090	net9#817	net9#155	2.000000	$vtpcm	$L=3.6e-07
+ $W=3.6e-07	$A=1.296e-13	$N=1.0000	$X=261.14 $Y=134.33
Rj1091	net9#817	net9#155	2.000000	$vtpcm	$L=3.6e-07
+ $W=3.6e-07	$A=1.296e-13	$N=1.0000	$X=261.14 $Y=131.875
Rj1092	net9#817	net9#155	2.000000	$vtpcm	$L=3.6e-07
+ $W=3.6e-07	$A=1.296e-13	$N=1.0000	$X=261.14 $Y=129.42
*
*       CAP/DIODE CARDS
*
*
CCC1	net9#817	net11#19	cmm5t 	0 
+ area=8.4e-10 perimeter=0.000116  
CCC1@1	net9#645	net11#17	cmm5t 	0 
+ area=8.4e-10 perimeter=0.000116  
CCC1@2	net9#731	net11#17	cmm5t 	0 
+ area=8.4e-10 perimeter=0.000116  
CCC1@3	net9#473	net11#16	cmm5t 	0 
+ area=8.4e-10 perimeter=0.000116  
CCC1@4	net9#559	net11#16	cmm5t 	0 
+ area=8.4e-10 perimeter=0.000116  
CCC1@5	net9#386	net11#13	cmm5t 	0 
+ area=8.4e-10 perimeter=0.000116  
CCC1@6	net9#220	net11#13	cmm5t 	0 
+ area=8.4e-10 perimeter=0.000116  
DD5_unmatched	GNDA	VDD3A	p_dnw	3.57048e-11	3.588e-05 
+  perimeter=3.588e-05  model=dnw
DD6_unmatched	GNDA	VDD3A	p_dnw	1.90124e-10	7.516e-05 
+  perimeter=7.516e-05  model=dnw
DD7_unmatched	GNDA	VDD3A	p_dnw	1.58288e-09	0.00049318 
+  perimeter=0.00049318  model=dnw
DD8_unmatched	GNDA	VDD3A	p_dnw	3.09086e-09	0.00032604 
+  perimeter=0.00032604  model=dnw
DD9_unmatched	GNDA	net6	p_dnw	1.82058e-10	5.826e-05 
+  perimeter=5.826e-05  model=dnw
DD10_unmatched	GNDA	net10	p_dnw	1.82058e-10	5.826e-05 
+  perimeter=5.826e-05  model=dnw
DD11_unmatched	GNDA	net10	p_dnw	1.82058e-10	5.826e-05 
+  perimeter=5.826e-05  model=dnw
DD12_unmatched	GNDA	net6	p_dnw	1.82058e-10	5.826e-05 
+  perimeter=5.826e-05  model=dnw
DD13_unmatched	GNDA	VDD3A	p_dnw	8.36476e-09	0.0003905 
+  perimeter=0.0003905  model=dnw
DD14_unmatched	GNDA	VDD3A	p_dnw3	4.20992e-11	0.000e+00 
+  perimeter=0  model=dnw3
DD19_unmatched	GNDA	VDD3A	p_dnw3	1.56539e-10	0.000e+00 
+  perimeter=0  model=dnw3
DD20_unmatched	GNDA	net6	p_dnw3	5.86064e-10	7.406e-05 
+  perimeter=7.406e-05  model=dnw3
DD21_unmatched	GNDA	net10	p_dnw3	5.86064e-10	7.406e-05 
+  perimeter=7.406e-05  model=dnw3
DD22_unmatched	GNDA	VDD3A	p_dnw3	1.22554e-09	0.000e+00 
+  perimeter=0  model=dnw3
DD23_unmatched	GNDA	VDD3A	p_dnw3	1.15225e-09	0.00012214 
+  perimeter=0.00012214  model=dnw3
DD24_unmatched	GNDA	VDD3A	p_dnw3	1.15028e-09	0.000e+00 
+  perimeter=0  model=dnw3
DD25_unmatched	GNDA	VDD3A	p_dnw3	1.15028e-09	0.000e+00 
+  perimeter=0  model=dnw3
DD26_unmatched	GNDA	net10	p_dnw3	5.86064e-10	7.406e-05 
+  perimeter=7.406e-05  model=dnw3
DD27_unmatched	GNDA	net6	p_dnw3	5.86064e-10	7.406e-05 
+  perimeter=7.406e-05  model=dnw3
*
*
.ENDS current_source_gm_10_en_r
*
