*
*
*
*                       LINUX           Thu Jun 20 06:00:12 2024
*
*
*
*  PROGRAM  advgen
*
*  Name           : advgen - Quantus - (64-bit)
*  Version        : 23.1.0-p075
*  Build Date     : Tue Sep 26 09:11:43 PDT 2023
*
*  HSPICE LIBRARY
*
* GLOBAL_TEMPERATURE 27
*  OPERATING_TEMPERATURE 27
*  QRC_TECH_DIR /home/saul/pkg/xfab/XKIT/xh018/cadence/v9_0/QRC_pvs/v9_0_1/XH018_1143/QRC-Typ 
*
*!LENGTH_UNITS METERS
*
*
*
*
*       SUBCIRCUIT DEFINITIONS
*
.SUBCKT NE3I_6 D G S B NW SB
.ENDS
*

*
.SUBCKT constant_gm GNDA OUT1 OUT2 OUT3 VDD3
*
*
*  caps2d version: 10
*
*       SUBCIRCUIT CALLS
*
XXM2@2 net23#7 net13#17 net25#3 net25 VDD3 GNDA NE3I_6	L=2.5e-06	W=1e-05
+ AD=2.7e-12	AS=4.8e-12	PD=1.054e-05	PS=2.096e-05
+ NRD=0.0173	NRS=0.0173
XXM2 net23#7 net13#16 net25#8 net25 VDD3 GNDA NE3I_6	L=2.5e-06	W=1e-05
+ AD=2.7e-12	AS=2.7e-12	PD=1.054e-05	PS=1.054e-05
+ NRD=0.0173	NRS=0.0173
XXM2@7 net23#9 net13#14 net25#8 net25 VDD3 GNDA NE3I_6	L=2.5e-06	W=1e-05
+ AD=2.7e-12	AS=2.7e-12	PD=1.054e-05	PS=1.054e-05
+ NRD=0.0173	NRS=0.0173
XXM2@1 net23#9 net13#12 net25#10 net25 VDD3 GNDA NE3I_6	L=2.5e-06	W=1e-05
+ AD=2.7e-12	AS=2.7e-12	PD=1.054e-05	PS=1.054e-05
+ NRD=0.0173	NRS=0.0173
XXM2@5 net23#11 net13#10 net25#10 net25 VDD3 GNDA NE3I_6	L=2.5e-06	W=1e-05
+ AD=2.7e-12	AS=2.7e-12	PD=1.054e-05	PS=1.054e-05
+ NRD=0.0173	NRS=0.0173
XXM2@6 net23#11 net13#8 net25#12 net25 VDD3 GNDA NE3I_6	L=2.5e-06	W=1e-05
+ AD=2.7e-12	AS=2.7e-12	PD=1.054e-05	PS=1.054e-05
+ NRD=0.0173	NRS=0.0173
XXM2@4 net23#13 net13#6 net25#12 net25 VDD3 GNDA NE3I_6	L=2.5e-06	W=1e-05
+ AD=2.7e-12	AS=2.7e-12	PD=1.054e-05	PS=1.054e-05
+ NRD=0.0173	NRS=0.0173
XXM2@3 net23#13 net13#4 net25#18 net25 VDD3 GNDA NE3I_6	L=2.5e-06	W=1e-05
+ AD=2.7e-12	AS=4.8e-12	PD=1.054e-05	PS=2.096e-05
+ NRD=0.0173	NRS=0.0173
XXM4 net13#18 net13#3 GNDA#3 GNDA VDD3 GNDA NE3I_6	L=2.5e-06	W=1e-05
+ AD=2.7e-12	AS=4.8e-12	PD=1.054e-05	PS=2.096e-05
+ NRD=0.0173	NRS=0.0173
XXM4@1 net13#18 net13 GNDA#10 GNDA VDD3 GNDA NE3I_6	L=2.5e-06	W=1e-05
+ AD=2.7e-12	AS=4.8e-12	PD=1.054e-05	PS=2.096e-05
+ NRD=0.0173	NRS=0.0173
*
*       TRANSISTOR CARDS
*
*
MMM0	net24#57	net1#9	net23	GNDA	ne3	L=2.5e-06	W=1e-05
+ AD=2.7e-12	AS=4.8e-12	PD=1.054e-05	PS=2.096e-05
+ NRD=0.0173	NRS=0.0173
MMM0@1	net24#57	net1#11	net23#4	GNDA	ne3
+ L=2.5e-06	W=1e-05
+ AD=2.7e-12	AS=4.8e-12	PD=1.054e-05	PS=2.096e-05
+ NRD=0.0173	NRS=0.0173
MMM1	net1#26	net1#5	net13#22	GNDA	ne3	L=2.5e-06
+ W=1e-05
+ AD=2.7e-12	AS=4.8e-12	PD=1.054e-05	PS=2.096e-05
+ NRD=0.0173	NRS=0.0173
MMM1@1	net1#26	net1#7	net13#25	GNDA	ne3	L=2.5e-06
+ W=1e-05
+ AD=2.7e-12	AS=4.8e-12	PD=1.054e-05	PS=2.096e-05
+ NRD=0.0173	NRS=0.0173
MMM17@3	VDD3#82	VDD3#8	VDD3#74	VDD3	pe3	L=2.5e-06
+ W=1e-05
+ AD=4.8e-12	AS=4.8e-12	PD=2.096e-05	PS=2.096e-05
+ NRD=0.0173	NRS=0.0173
MMM17	VDD3#87	VDD3#10	VDD3#78	VDD3	pe3
+ L=2.5e-06	W=1e-05
+ AD=4.8e-12	AS=4.8e-12	PD=2.096e-05	PS=2.096e-05
+ NRD=0.0173	NRS=0.0173
MMM16	net47	net17#18	VDD3#63	VDD3	pe3	L=2.5e-06
+ W=1e-05
+ AD=4.8e-12	AS=4.8e-12	PD=2.096e-05	PS=2.096e-05
+ NRD=0.0173	NRS=0.0173
MMM17@2	VDD3#69	VDD3#6	VDD3#66	VDD3	pe3	L=2.5e-06
+ W=1e-05
+ AD=4.8e-12	AS=4.8e-12	PD=2.096e-05	PS=2.096e-05
+ NRD=0.0173	NRS=0.0173
MMM6	net30#4	net17#14	VDD3#57	VDD3	pe3
+ L=2.5e-06	W=1e-05
+ AD=4.8e-12	AS=4.8e-12	PD=2.096e-05	PS=2.096e-05
+ NRD=0.0173	NRS=0.0173
MMM6@1	net30#7	net17#16	VDD3#60	VDD3	pe3
+ L=2.5e-06	W=1e-05
+ AD=4.8e-12	AS=4.8e-12	PD=2.096e-05	PS=2.096e-05
+ NRD=0.0173	NRS=0.0173
MMM12@1	net17#57	net17#10	VDD3#51	VDD3	pe3
+ L=2.5e-06	W=1e-05
+ AD=4.8e-12	AS=4.8e-12	PD=2.096e-05	PS=2.096e-05
+ NRD=0.0173	NRS=0.0173
MMM9	net18#10	net17#12	VDD3#54	VDD3	pe3
+ L=2.5e-06	W=1e-05
+ AD=4.8e-12	AS=4.8e-12	PD=2.096e-05	PS=2.096e-05
+ NRD=0.0173	NRS=0.0173
MMM9@1	net18#7	net17#6	VDD3#33	VDD3	pe3
+ L=2.5e-06	W=1e-05
+ AD=4.8e-12	AS=4.8e-12	PD=2.096e-05	PS=2.096e-05
+ NRD=0.0173	NRS=0.0173
MMM12	net17#44	net17#8	VDD3#36	VDD3	pe3
+ L=2.5e-06	W=1e-05
+ AD=4.8e-12	AS=4.8e-12	PD=2.096e-05	PS=2.096e-05
+ NRD=0.0173	NRS=0.0173
MMM13	net40	net17#2	VDD3#27	VDD3	pe3	L=2.5e-06
+ W=1e-05
+ AD=4.8e-12	AS=4.8e-12	PD=2.096e-05	PS=2.096e-05
+ NRD=0.0173	NRS=0.0173
MMM13@1	net40#4	net17#4	VDD3#30	VDD3	pe3
+ L=2.5e-06	W=1e-05
+ AD=4.8e-12	AS=4.8e-12	PD=2.096e-05	PS=2.096e-05
+ NRD=0.0173	NRS=0.0173
MMM17@1	VDD3#21	VDD3#2	VDD3#12	VDD3	pe3	L=2.5e-06
+ W=1e-05
+ AD=4.8e-12	AS=4.8e-12	PD=2.096e-05	PS=2.096e-05
+ NRD=0.0173	NRS=0.0173
MMM17@4	VDD3#24	VDD3#4	VDD3#17	VDD3	pe3	L=2.5e-06
+ W=1e-05
+ AD=4.8e-12	AS=4.8e-12	PD=2.096e-05	PS=2.096e-05
+ NRD=0.0173	NRS=0.0173
MMM15	OUT3#1	net24#18	net47#4	VDD3	pe3	L=2.5e-06
+ W=1e-05
+ AD=4.8e-12	AS=4.8e-12	PD=2.096e-05	PS=2.096e-05
+ NRD=0.0173	NRS=0.0173
MMM11@1	OUT2#1	net24#14	net40#7	VDD3	pe3	L=2.5e-06
+ W=1e-05
+ AD=2.7e-12	AS=4.8e-12	PD=1.054e-05	PS=2.096e-05
+ NRD=0.0173	NRS=0.0173
MMM11	OUT2#1	net24#16	net40#10	VDD3	pe3	L=2.5e-06
+ W=1e-05
+ AD=2.7e-12	AS=4.8e-12	PD=1.054e-05	PS=2.096e-05
+ NRD=0.0173	NRS=0.0173
MMM7@1	OUT1#1	net24#10	net30	VDD3	pe3	L=2.5e-06	W=1e-05
+ AD=2.7e-12	AS=4.8e-12	PD=1.054e-05	PS=2.096e-05
+ NRD=0.0173	NRS=0.0173
MMM7	OUT1#1	net24#12	net30#10	VDD3	pe3	L=2.5e-06
+ W=1e-05
+ AD=2.7e-12	AS=4.8e-12	PD=1.054e-05	PS=2.096e-05
+ NRD=0.0173	NRS=0.0173
MMM3@1	net24#43	net24#6	net17#19	VDD3	pe3
+ L=2.5e-06	W=1e-05
+ AD=2.7e-12	AS=4.8e-12	PD=1.054e-05	PS=2.096e-05
+ NRD=0.0173	NRS=0.0173
MMM3	net24#43	net24#8	net17#30	VDD3	pe3
+ L=2.5e-06	W=1e-05
+ AD=2.7e-12	AS=4.8e-12	PD=1.054e-05	PS=2.096e-05
+ NRD=0.0173	NRS=0.0173
MMM5@1	net1#12	net24#2	net18	VDD3	pe3	L=2.5e-06
+ W=1e-05
+ AD=2.7e-12	AS=4.8e-12	PD=1.054e-05	PS=2.096e-05
+ NRD=0.0173	NRS=0.0173
MMM5	net1#12	net24#4	net18#4	VDD3	pe3
+ L=2.5e-06	W=1e-05
+ AD=2.7e-12	AS=4.8e-12	PD=1.054e-05	PS=2.096e-05
+ NRD=0.0173	NRS=0.0173
MMM14	net2#12	net2#2	net24#32	net24	pe3	L=1e-05
+ W=2e-06
+ AD=9.6e-13	AS=9.6e-13	PD=4.96e-06	PS=4.96e-06
+ NRD=0.0865	NRS=0.0865
MMM8	net1#19	net1#2	net2#11	net2	pe3	L=1e-05
+ W=2e-06
+ AD=9.6e-13	AS=9.6e-13	PD=4.96e-06	PS=4.96e-06
+ NRD=0.0865	NRS=0.0865
*
*
*       CANONICAL RESISTOR AND CAP/DIODE CARDS
*
RRR3	GNDA#1	net25	rpp1k1_3 	L=0.0002878	W=4e-06
+ $SUB=VDD3 
*
*       PARASITIC RESISTOR AND CAP/DIODE CARDS
*
Rd1	VDD3#186	VDD3#198	1.481260	$MET3	$W=1.46e-06
+ $X=16.225 $Y=99.3405
Rd2	VDD3#186	VDD3#204	0.652125	$MET3	$W=1.46e-06
+ $X=16.225 $Y=114.127
Rd3	net18#13	net18#19	1.890636	$MET3	$W=1.46e-06
+ $X=14.445 $Y=79.697
Rd4	net18#19	net18#17	1.731260	$MET3	$W=1.46e-06
+ $X=14.445 $Y=102.1495
Rd5	net24#87	net24#84	2.855707	$MET3	$W=9.6e-07
+ $X=33.045 $Y=51.967
Rd6	net24#84	net24#82	1.882658	$MET3	$W=9.6e-07
+ $X=22.015 $Y=56.935
Rd7	VDD3#176	VDD3#187	1.481260	$MET3	$W=1.46e-06
+ $X=46.245 $Y=99.3405
Rd8	VDD3#176	VDD3#205	0.644776	$MET3	$W=1.46e-06
+ $X=46.245 $Y=114.0545
Rd9	net17#74	net17#76	1.731260	$MET3	$W=1.46e-06
+ $X=48.025 $Y=100.8705
Rd10	net17#76	net17#83	0.780548	$MET3	$W=1.46e-06
+ $X=48.025 $Y=83.4905
Rd11	net17#83	net17#71	1.710198	$MET3	$W=1.46e-06
+ $X=38.193 $Y=73.13
Rd12	net30#16	net30#18	1.731260	$MET3	$W=1.46e-06
+ $X=49.805 $Y=103.4305
Rd13	net30#18	net30#13	2.176753	$MET3	$W=1.46e-06
+ $X=49.805 $Y=78.1555
Rd14	net40#16	net40#18	1.731260	$MET3	$W=1.46e-06
+ $X=51.585 $Y=104.7105
Rd15	net40#18	net40#15	1.966246	$MET3	$W=1.46e-06
+ $X=51.585 $Y=80.653
Rd16	net47#6	net47#8	4.050672	$MET3	$W=6e-07
+ $X=53.365 $Y=92.1765
Rd17	net23#24	net23#27	2.038872	$MET3	$W=3e-07
+ $X=66.3955 $Y=14.135
Rd18	net23#27	net23#28	0.466607	$MET3	$W=9.6e-07
+ $X=60.165 $Y=14.135
Rd19	net23#28	net23#29	0.466607	$MET3	$W=9.6e-07
+ $X=54.085 $Y=14.135
Rd20	net23#29	net23#16	3.322194	$MET3	$W=9.4e-07
+ $X=43.5425 $Y=14.135
Rd21	net23#27	net23#22	1.562740	$MET3	$W=3e-07
+ $X=63.205 $Y=14.785
Rd22	net23#28	net23#20	1.562740	$MET3	$W=3e-07
+ $X=57.125 $Y=14.785
Rd23	net23#29	net23#18	1.562740	$MET3	$W=3e-07
+ $X=51.045 $Y=14.785
Rd24	OUT2	OUT2#5	2.242486	$MET3	$W=1.46e-06
+ $X=65.4675 $Y=56.935
Rd25	OUT3	OUT3#3	1.572143	$MET3	$W=1.46e-06
+ $X=69.945 $Y=63.765
Rd26	OUT1	OUT1#5	2.944314	$MET3	$W=1.46e-06
+ $X=59.41 $Y=52.585
Re1	net24#82	net24#31	1.125000	$MET2	$W=7.6e-07
+ $X=19.445 $Y=51.78
Re2	net18#13	net18#6	0.770846	$MET2	$W=9.6e-07
+ $X=19.2 $Y=59.1025
Re3	net18#6	net18#3	1.593667	$MET2	$W=9.6e-07
+ $X=14.4305 $Y=57.075
Re4	net2#5	net2#10	3.032228	$MET2	$W=3e-07
+ $X=9.4155 $Y=47.495
Re5	GNDA#12	GNDA#115	2.349906	$MET2	$W=3e-07
+ $X=23.5755 $Y=13.955
Re6	GNDA#115	GNDA#4	2.295639	$MET2	$W=3e-07
+ $X=18.3 $Y=13.955
Re7	GNDA#115	GNDA#71	0.405835	$MET2	$W=3.96e-06
+ $X=20.68 $Y=9.1325
Re8	net24#84	net24#46	2.250385	$MET2	$W=9.6e-07
+ $X=24.5825 $Y=56.935
Re9	net17#71	net17#32	0.883001	$MET2	$W=9.2e-07
+ $X=29.97 $Y=57.1025
Re10	net17#32	net17#21	1.593667	$MET2	$W=9.6e-07
+ $X=24.5805 $Y=55.655
Re11	OUT1#3	OUT1#5	1.125000	$MET2	$W=9.6e-07
+ $X=35.335 $Y=56.935
Re12	net23#6	net23#16	1.432562	$MET2	$W=9.6e-07
+ $X=39.1205 $Y=37.045
Re13	net23#16	net23#3	1.286104	$MET2	$W=9.6e-07
+ $X=35.0505 $Y=37.045
Re14	net24#59	net24#87	1.685525	$MET2	$W=9.6e-07
+ $X=34.193 $Y=38.325
Re15	net1#44	net1#48	1.614043	$MET2	$W=4.6e-07
+ $X=37.5605 $Y=50.605
Re16	net1#48	net1#49	1.011870	$MET2	$W=4.6e-07
+ $X=32.8955 $Y=50.605
Re17	net1#49	net1#50	0.489043	$MET2	$W=4.6e-07
+ $X=28.2305 $Y=50.605
Re18	net1#50	net1#51	0.902886	$MET2	$W=3e-07
+ $X=23.575 $Y=50.605
Re19	net1#51	net1#14	0.917290	$MET2	$W=9.6e-07
+ $X=21.99 $Y=51.91
Re21	net1#51	net1#18	0.598679	$MET2	$W=9.6e-07
+ $X=21.99 $Y=47.1375
Re22	net1#18	net1#55	0.196689	$MET2	$W=9.6e-07
+ $X=21.99 $Y=41.1205
Re23	net1#55	net1#28	1.718411	$MET2	$W=9.6e-07
+ $X=21.99 $Y=39.4575
Re25	net1#55	net1#16	2.020786	$MET2	$W=3e-07
+ $X=20.8025 $Y=40.26
Re26	net30#13	net30#12	0.934384	$MET2	$W=9.6e-07
+ $X=40.615 $Y=58.605
Re27	net30#12	net30#3	1.593667	$MET2	$W=9.6e-07
+ $X=35.3355 $Y=55.655
Re28	OUT2#3	OUT2#5	1.125000	$MET2	$W=9.6e-07
+ $X=46.15 $Y=56.935
Re29	net23#18	net23#8	0.236842	$MET2	$W=9.8e-06
+ $X=51.045 $Y=19.875
Re30	net40#12	net40#9	1.593667	$MET2	$W=9.6e-07
+ $X=46.1505 $Y=55.655
Re31	net40#12	net40#15	0.773961	$MET2	$W=9.6e-07
+ $X=51.305 $Y=60.5265
Re32	net47#6	net47#5	0.236842	$MET2	$W=9.8e-06
+ $X=53.575 $Y=63.745
Re33	net47#8	net47#3	2.137104	$MET2	$W=9.6e-07
+ $X=46.6705 $Y=115.67
Re34	net40#16	net40#3	3.153063	$MET2	$W=9.6e-07
+ $X=38.3005 $Y=114.39
Re35	net30#16	net30#6	2.150979	$MET2	$W=9.6e-07
+ $X=43.0205 $Y=113.11
Re36	net18#9	net18#17	2.248104	$MET2	$W=9.6e-07
+ $X=21.8605 $Y=111.83
Re37	net17#74	net17#55	2.302063	$MET2	$W=9.6e-07
+ $X=40.6505 $Y=110.55
Re38	VDD3#176	VDD3#86	0.615055	$MET2	$W=1.46e-06
+ $X=44.8505 $Y=109.02
Re39	VDD3#86	VDD3#76	0.154082	$MET2	$W=1.46e-06
+ $X=42.4555 $Y=109.02
Re40	VDD3#76	VDD3#65	0.189562	$MET2	$W=1.46e-06
+ $X=39.0655 $Y=109.02
Re41	VDD3#65	VDD3#59	0.189562	$MET2	$W=1.46e-06
+ $X=35.3255 $Y=109.02
Re42	VDD3#59	VDD3#53	0.189562	$MET2	$W=1.46e-06
+ $X=31.5855 $Y=109.02
Re43	VDD3#53	VDD3#35	0.189562	$MET2	$W=1.46e-06
+ $X=27.8455 $Y=109.02
Re44	VDD3#35	VDD3#29	0.189562	$MET2	$W=1.46e-06
+ $X=24.1055 $Y=109.02
Re45	VDD3#29	VDD3#23	0.035479	$MET2	$W=1.46e-06
+ $X=22.235 $Y=109.02
Re46	VDD3#23	VDD3#15	0.154082	$MET2	$W=1.46e-06
+ $X=20.0155 $Y=109.02
Re47	VDD3#15	VDD3#186	0.615055	$MET2	$W=1.46e-06
+ $X=17.6205 $Y=109.02
Re48	net40#18	net40#6	3.903063	$MET2	$W=9.6e-07
+ $X=38.3005 $Y=95.03
Re49	net30#18	net30#9	2.900979	$MET2	$W=9.6e-07
+ $X=43.0205 $Y=93.75
Re50	net18#12	net18#19	3.286396	$MET2	$W=9.6e-07
+ $X=23.7305 $Y=92.47
Re51	net17#76	net17#70	1.467646	$MET2	$W=9.6e-07
+ $X=43.1105 $Y=91.19
Re52	net17#70	net17#62	0.288292	$MET2	$W=9.6e-07
+ $X=36.8455 $Y=91.19
Re53	net17#62	net17#49	0.288292	$MET2	$W=9.6e-07
+ $X=33.1055 $Y=91.19
Re54	net17#49	net17#80	0.171125	$MET2	$W=9.6e-07
+ $X=30.6455 $Y=91.19
Re55	net17#80	net17#36	0.117167	$MET2	$W=9.6e-07
+ $X=29.015 $Y=91.19
Re56	net17#36	net17#25	2.538292	$MET2	$W=9.6e-07
+ $X=25.6255 $Y=91.19
Re57	VDD3#187	VDD3#89	0.115055	$MET2	$W=1.46e-06
+ $X=44.8505 $Y=89.66
Re58	VDD3#89	VDD3#81	0.154082	$MET2	$W=1.46e-06
+ $X=42.4555 $Y=89.66
Re59	VDD3#81	VDD3#73	0.035479	$MET2	$W=1.46e-06
+ $X=40.935 $Y=89.66
Re60	VDD3#73	VDD3#68	0.154082	$MET2	$W=1.46e-06
+ $X=38.7155 $Y=89.66
Re61	VDD3#68	VDD3#62	0.189562	$MET2	$W=1.46e-06
+ $X=35.3255 $Y=89.66
Re62	VDD3#62	VDD3#56	0.189562	$MET2	$W=1.46e-06
+ $X=31.5855 $Y=89.66
Re63	VDD3#56	VDD3#38	0.189562	$MET2	$W=1.46e-06
+ $X=27.8455 $Y=89.66
Re64	VDD3#38	VDD3#32	0.189562	$MET2	$W=1.46e-06
+ $X=24.1055 $Y=89.66
Re65	VDD3#32	VDD3#26	0.035479	$MET2	$W=1.46e-06
+ $X=22.235 $Y=89.66
Re66	VDD3#26	VDD3#20	0.154082	$MET2	$W=1.46e-06
+ $X=20.0155 $Y=89.66
Re67	VDD3#20	VDD3#198	0.115055	$MET2	$W=1.46e-06
+ $X=17.6205 $Y=89.66
Re68	net17#83	net17#66	1.755937	$MET2	$W=9.6e-07
+ $X=41.2405 $Y=75.79
Re69	net17#66	net17#53	0.288292	$MET2	$W=9.6e-07
+ $X=33.1055 $Y=75.79
Re70	net17#53	net17#40	0.288292	$MET2	$W=9.6e-07
+ $X=29.3655 $Y=75.79
Re71	net17#40	net17#29	2.538292	$MET2	$W=9.6e-07
+ $X=25.6255 $Y=75.79
Re72	net24#81	net24#89	3.444457	$MET2	$W=4.6e-07
+ $X=51.643 $Y=70.305
Re73	net24#89	net24#90	0.489043	$MET2	$W=4.6e-07
+ $X=46.1505 $Y=70.305
Re74	net24#90	net24#91	1.250761	$MET2	$W=4.6e-07
+ $X=40.743 $Y=70.305
Re75	net24#91	net24#92	0.489043	$MET2	$W=4.6e-07
+ $X=35.3355 $Y=70.305
Re76	net24#92	net24#93	1.241109	$MET2	$W=4.6e-07
+ $X=29.958 $Y=70.305
Re77	net24#93	net24#94	0.489043	$MET2	$W=4.6e-07
+ $X=24.5805 $Y=70.305
Re78	net24#94	net24#95	1.143783	$MET2	$W=4.6e-07
+ $X=19.5055 $Y=70.305
Re79	net24#95	net24#22	1.614043	$MET2	$W=4.6e-07
+ $X=14.4305 $Y=70.305
Re80	OUT3#3	OUT3#2	0.236842	$MET2	$W=9.8e-06
+ $X=56.615 $Y=63.745
Re81	net23#20	net23#10	0.236842	$MET2	$W=9.8e-06
+ $X=57.125 $Y=19.875
Re82	VDD3#113	VDD3#200	2.779622	$MET2	$W=1.46e-06
+ $X=59.36 $Y=50.3295
Re83	VDD3#200	VDD3#201	2.427747	$MET2	$W=1.46e-06
+ $X=35.765 $Y=72.285
Re84	VDD3#201	VDD3#39	3.730913	$MET2	$W=1.46e-06
+ $X=8.665 $Y=72.285
Re85	VDD3#201	VDD3#203	2.310142	$MET2	$W=1.28e-06
+ $X=12.26 $Y=91.3025
Re86	VDD3#203	VDD3#204	0.372063	$MET2	$W=1.28e-06
+ $X=12.26 $Y=117.65
Re87	VDD3#204	VDD3	0.239678	$MET2	$W=5.065e-06
+ $X=25.309 $Y=120.8025
Re88	VDD3	VDD3#205	0.198843	$MET2	$W=5.065e-06
+ $X=38.625 $Y=120.8025
Re89	net23#22	net23#12	0.236842	$MET2	$W=9.8e-06
+ $X=63.205 $Y=19.875
Re90	net23#24	net23#14	0.236842	$MET2	$W=9.8e-06
+ $X=69.285 $Y=19.875
Re91	net13#28	net13#35	2.534167	$MET2	$W=3e-07
+ $X=69.4405 $Y=25.285
Re92	net13#35	net13#36	2.614667	$MET2	$W=3e-07
+ $X=58.8405 $Y=25.285
Re93	net13#36	net13#21	7.990273	$MET2	$W=3e-07
+ $X=34.818 $Y=25.285
Re95	net13#21	net13#19	1.541955	$MET2	$W=3e-07
+ $X=20.79 $Y=24.965
Re96	net13#21	net13#40	1.287169	$MET2	$W=9.6e-07
+ $X=20.8 $Y=28.01
Re97	net13#40	net13#24	1.266313	$MET2	$W=9.6e-07
+ $X=26.135 $Y=37.045
Re98	net13#40	net13#27	1.443605	$MET2	$W=9.6e-07
+ $X=29.175 $Y=37.045
Re99	net25#20	net25#22	1.562740	$MET2	$W=3e-07
+ $X=72.325 $Y=14.7855
Re100	net25#22	net25#23	0.466607	$MET2	$W=9.6e-07
+ $X=69.285 $Y=14.135
Re101	net25#23	net25#24	0.466607	$MET2	$W=9.6e-07
+ $X=63.205 $Y=14.135
Re102	net25#24	net25#25	0.466607	$MET2	$W=9.6e-07
+ $X=57.125 $Y=14.135
Re103	net25#25	net25#4	2.043228	$MET2	$W=3e-07
+ $X=48.005 $Y=14.785
Re104	net25#22	net25#15	3.170049	$MET2	$W=9.6e-07
+ $X=73.015 $Y=14.135
Re105	net25#23	net25#13	1.562740	$MET2	$W=3e-07
+ $X=66.245 $Y=14.785
Re106	net25#24	net25#11	1.562740	$MET2	$W=3e-07
+ $X=60.165 $Y=14.785
Re107	net25#25	net25#9	1.562740	$MET2	$W=3e-07
+ $X=54.085 $Y=14.785
Re108	GNDA#107	GNDA#14	0.805153	$MET2	$W=3.96e-06
+ $X=77.64 $Y=37.682
Re127	net1#23	net1#50	1.125000	$MET2	$W=2.704e-07
+ $X=26.71 $Y=50.605
Re159	net17#42	net17#80	1.125000	$MET2	$W=2.704e-07
+ $X=29.015 $Y=91.19
Re177	net24#75	net24#89	1.125000	$MET2	$W=2.704e-07
+ $X=47.67 $Y=70.305
Re178	net24#69	net24#90	1.125000	$MET2	$W=2.704e-07
+ $X=44.63 $Y=70.305
Re179	net24#63	net24#91	1.125000	$MET2	$W=2.704e-07
+ $X=36.855 $Y=70.305
Re180	net24#54	net24#92	1.125000	$MET2	$W=2.704e-07
+ $X=33.815 $Y=70.305
Re181	net24#41	net24#93	1.125000	$MET2	$W=2.704e-07
+ $X=26.1 $Y=70.305
Re182	net24#47	net24#94	1.125000	$MET2	$W=2.704e-07
+ $X=23.06 $Y=70.305
Re183	net24#28	net24#95	1.125000	$MET2	$W=2.704e-07
+ $X=15.95 $Y=70.305
Re188	VDD3#138	VDD3#200	0.225000	$MET2	$W=1.352e-06
+ $X=60.465 $Y=72.285
Re189	VDD3#168	VDD3#201	0.281250	$MET2	$W=1.0816e-06
+ $X=11.91 $Y=72.285
Re191	VDD3#106	VDD3#203	0.300000	$MET2	$W=1.014e-06
+ $X=12.925 $Y=113.18
Re195	net13#30	net13#35	0.225000	$MET2	$W=1.352e-06
+ $X=64.14 $Y=25.285
Re196	net13#32	net13#36	0.225000	$MET2	$W=1.352e-06
+ $X=53.54 $Y=25.285
Re125	net1#38	net1#48	1.125000	$MET2	$W=2.704e-07
+ $X=36.04 $Y=50.605
Re126	net1#32	net1#49	1.125000	$MET2	$W=2.704e-07
+ $X=29.75 $Y=50.605
Rf1	net18	net18#2	3.709742	$MET1	$W=3.2e-07
+ $X=11.39 $Y=68.06
Rf2	net18#2	net18#3	1.383434	$MET1	$W=3.2e-07
+ $X=11.39 $Y=58.1555
Rf3	net18	net18#2	0.416667	$MET1	$W=3.2e-07
+ $X=11.39 $Y=63.0325
Rf6	net24	net24#22	0.279125	$MET1	$W=3.2e-07
+ $X=12.91 $Y=69.695
Rf9	net1#12	net1#13	3.709742	$MET1	$W=3.2e-07
+ $X=14.43 $Y=68.06
Rf10	net1#13	net1#14	2.816434	$MET1	$W=3.2e-07
+ $X=14.43 $Y=57.5155
Rf11	net1#12	net1#13	0.416667	$MET1	$W=3.2e-07
+ $X=14.43 $Y=63.0325
Rf14	net24#3	net24#28	0.279125	$MET1	$W=3.2e-07
+ $X=15.95 $Y=69.695
Rf17	net18#4	net18#5	3.709742	$MET1	$W=3.2e-07
+ $X=17.47 $Y=68.06
Rf18	net18#5	net18#6	2.508434	$MET1	$W=3.2e-07
+ $X=17.47 $Y=58.1555
Rf19	net18#4	net18#5	0.416667	$MET1	$W=3.2e-07
+ $X=17.47 $Y=63.0325
Rf20	GNDA#3	GNDA#4	3.538297	$MET1	$W=3.2e-07
+ $X=17.75 $Y=21.7955
Rf21	GNDA#4	GNDA#5	0.171445	$MET1	$W=3.2e-07
+ $X=17.75 $Y=19.5195
Rf22	GNDA#5	GNDA#7	1.487243	$MET1	$W=3.2e-07
+ $X=17.3895 $Y=15.52
Rf23	GNDA#7	GNDA#6	3.155726	$MET1	$W=3.2e-07
+ $X=16.89 $Y=21.322
Rf24	GNDA#3	GNDA#5	0.416667	$MET1	$W=3.2e-07
+ $X=17.75 $Y=19.1625
Rf25	GNDA#6	GNDA#7	0.416667	$MET1	$W=3.2e-07
+ $X=16.89 $Y=19.025
Rf26	net2	net2#5	2.786095	$MET1	$W=1.18e-06
+ $X=15.155 $Y=47.495
Rf27	net2#5	net2#3	0.885653	$MET1	$W=8.36e-06
+ $X=15.155 $Y=47.495
Rf28	net1	net1#16	2.788917	$MET1	$W=1.17e-06
+ $X=15.155 $Y=41.365
Rf29	net1#16	net1#3	0.880759	$MET1	$W=8.375e-06
+ $X=15.155 $Y=41.365
Rf30	net2#7	net2#8	2.845695	$MET1	$W=3.2e-07
+ $X=19.535 $Y=40.665
Rf31	net2#8	net2#9	1.374569	$MET1	$W=3.2e-07
+ $X=9.41 $Y=41.297
Rf32	net2#9	net2#10	0.439414	$MET1	$W=9.8e-07
+ $X=8.9275 $Y=42.775
Rf33	net2#9	net2#11	1.895251	$MET1	$W=1.9e-06
+ $X=9.41 $Y=42.775
Rf34	net2#10	net2#12	2.085989	$MET1	$W=9.8e-07
+ $X=8.9345 $Y=48.93
Rf35	net2#7	net2#8	0.416667	$MET1	$W=3.2e-07
+ $X=13.9425 $Y=40.665
Rf36	net13#18	net13#19	2.788917	$MET1	$W=1.17e-06
+ $X=20.79 $Y=19.875
Rf37	net13#19	net13#18	0.423233	$MET1	$W=8.375e-06
+ $X=20.79 $Y=19.875
Rf38	VDD3#1	VDD3#13	2.943511	$MET1	$W=3.2e-07
+ $X=18.495 $Y=96.8145
Rf39	VDD3#13	VDD3#14	1.210344	$MET1	$W=3.2e-07
+ $X=18.495 $Y=105.5495
Rf40	VDD3#14	VDD3#15	2.161719	$MET1	$W=3.2e-07
+ $X=18.495 $Y=107.6245
Rf41	VDD3#12	VDD3#13	0.416667	$MET1	$W=3.2e-07
+ $X=18.495 $Y=101.24
Rf42	VDD3#12	VDD3#14	2.500000	$MET1	$W=3.2e-07
+ $X=18.495 $Y=106.27
Rf43	VDD3#3	VDD3#18	2.943511	$MET1	$W=3.2e-07
+ $X=18.495 $Y=77.4545
Rf44	VDD3#18	VDD3#19	1.210344	$MET1	$W=3.2e-07
+ $X=18.495 $Y=86.1895
Rf45	VDD3#19	VDD3#20	2.161719	$MET1	$W=3.2e-07
+ $X=18.495 $Y=88.2645
Rf46	VDD3#17	VDD3#18	0.416667	$MET1	$W=3.2e-07
+ $X=18.495 $Y=81.88
Rf47	VDD3#17	VDD3#19	2.500000	$MET1	$W=3.2e-07
+ $X=18.495 $Y=86.91
Rf48	net24#31	net24#33	0.293278	$MET1	$W=9.8e-07
+ $X=20.755 $Y=50.728
Rf49	net24#33	net24#35	0.534762	$MET1	$W=5.6e-07
+ $X=20.965 $Y=47.455
Rf50	net24#35	net24#34	1.762964	$MET1	$W=3.2e-07
+ $X=18.3005 $Y=46.795
Rf51	net24#32	net24#33	1.875000	$MET1	$W=9.8e-07
+ $X=20.425 $Y=48.905
Rf52	net24#34	net24#35	1.500000	$MET1	$W=5.6e-07
+ $X=19.525 $Y=46.795
Rf53	VDD3#22	VDD3#23	2.161719	$MET1	$W=3.2e-07
+ $X=21.535 $Y=107.6245
Rf54	VDD3#22	VDD3#21	1.627010	$MET1	$W=3.2e-07
+ $X=21.535 $Y=105.5505
Rf55	VDD3#21	VDD3#22	2.500000	$MET1	$W=3.2e-07
+ $X=21.535 $Y=106.27
Rf56	VDD3#25	VDD3#26	2.161719	$MET1	$W=3.2e-07
+ $X=21.535 $Y=88.2645
Rf57	VDD3#25	VDD3#24	1.627010	$MET1	$W=3.2e-07
+ $X=21.535 $Y=86.1905
Rf58	VDD3#24	VDD3#25	2.500000	$MET1	$W=3.2e-07
+ $X=21.535 $Y=86.91
Rf59	net17#19	net17#20	3.709742	$MET1	$W=3.2e-07
+ $X=21.54 $Y=68.06
Rf60	net17#20	net17#21	1.725122	$MET1	$W=3.2e-07
+ $X=21.54 $Y=57.4455
Rf61	net17#19	net17#20	0.416667	$MET1	$W=3.2e-07
+ $X=21.54 $Y=63.0325
Rf62	VDD3#28	VDD3#29	2.161719	$MET1	$W=3.2e-07
+ $X=22.235 $Y=107.6245
Rf63	VDD3#28	VDD3#27	1.627010	$MET1	$W=3.2e-07
+ $X=22.235 $Y=105.5505
Rf64	VDD3#27	VDD3#28	2.500000	$MET1	$W=3.2e-07
+ $X=22.235 $Y=106.27
Rf65	VDD3#31	VDD3#32	2.161719	$MET1	$W=3.2e-07
+ $X=22.235 $Y=88.2645
Rf66	VDD3#31	VDD3#30	1.627010	$MET1	$W=3.2e-07
+ $X=22.235 $Y=86.1905
Rf67	VDD3#30	VDD3#31	2.500000	$MET1	$W=3.2e-07
+ $X=22.235 $Y=86.91
Rf68	net1#18	net1#19	2.497945	$MET1	$W=2e-06
+ $X=21.995 $Y=42.825
Rf69	net13#2	net13#21	1.132395	$MET1	$W=5.34e-06
+ $X=20.79 $Y=25.285
Rf70	GNDA#8	GNDA#9	3.155726	$MET1	$W=3.2e-07
+ $X=24.69 $Y=24.3475
Rf71	GNDA#9	GNDA#11	1.487243	$MET1	$W=3.2e-07
+ $X=24.192 $Y=15.52
Rf72	GNDA#11	GNDA#12	0.171445	$MET1	$W=3.2e-07
+ $X=23.83 $Y=19.518
Rf73	GNDA#12	GNDA#10	3.538297	$MET1	$W=3.2e-07
+ $X=23.83 $Y=21.7945
Rf74	GNDA#8	GNDA#9	0.416667	$MET1	$W=3.2e-07
+ $X=24.69 $Y=19.025
Rf75	GNDA#10	GNDA#11	0.416667	$MET1	$W=3.2e-07
+ $X=23.83 $Y=19.1625
Rf78	net17	net17#25	1.299375	$MET1	$W=3.2e-07
+ $X=23.755 $Y=94.025
Rf81	net17#3	net17#29	0.346500	$MET1	$W=3.2e-07
+ $X=23.755 $Y=76.645
Rf82	net13#22	net13#23	3.709742	$MET1	$W=3.2e-07
+ $X=25.19 $Y=48.82
Rf83	net13#23	net13#24	1.573528	$MET1	$W=3.2e-07
+ $X=25.19 $Y=38.5205
Rf84	net13#22	net13#23	0.416667	$MET1	$W=3.2e-07
+ $X=25.19 $Y=43.7925
Rf85	net40#2	net40	1.627010	$MET1	$W=3.2e-07
+ $X=25.275 $Y=106.27
Rf86	net40#2	net40#3	1.903786	$MET1	$W=3.2e-07
+ $X=25.275 $Y=110.4295
Rf87	net40	net40#2	2.500000	$MET1	$W=3.2e-07
+ $X=25.275 $Y=106.27
Rf88	net40#5	net40#4	1.627010	$MET1	$W=3.2e-07
+ $X=25.275 $Y=86.91
Rf89	net40#5	net40#6	1.903786	$MET1	$W=3.2e-07
+ $X=25.275 $Y=91.0695
Rf90	net40#4	net40#5	2.500000	$MET1	$W=3.2e-07
+ $X=25.275 $Y=86.91
Rf91	VDD3#34	VDD3#35	2.161719	$MET1	$W=3.2e-07
+ $X=25.975 $Y=107.6245
Rf92	VDD3#34	VDD3#33	1.627010	$MET1	$W=3.2e-07
+ $X=25.975 $Y=105.5505
Rf93	VDD3#33	VDD3#34	2.500000	$MET1	$W=3.2e-07
+ $X=25.975 $Y=106.27
Rf94	VDD3#37	VDD3#38	2.161719	$MET1	$W=3.2e-07
+ $X=25.975 $Y=88.2645
Rf95	VDD3#37	VDD3#36	1.627010	$MET1	$W=3.2e-07
+ $X=25.975 $Y=86.1905
Rf96	VDD3#36	VDD3#37	2.500000	$MET1	$W=3.2e-07
+ $X=25.975 $Y=86.91
Rf97	VDD3#39	VDD3#40	0.089658	$MET1	$W=1.98e-06
+ $X=14.297 $Y=20.115
Rf98	VDD3#40	VDD3#42	0.625387	$MET1	$W=3.2e-07
+ $X=15.12 $Y=18.3335
Rf99	VDD3#42	VDD3#43	2.119667	$MET1	$W=3.2e-07
+ $X=15.12 $Y=15.197
Rf100	VDD3#43	VDD3#44	1.307195	$MET1	$W=3.2e-07
+ $X=24.3445 $Y=13.145
Rf101	VDD3#44	VDD3#45	1.263644	$MET1	$W=3.2e-07
+ $X=26.46 $Y=15.198
Rf102	VDD3#45	VDD3#46	1.705430	$MET1	$W=3.2e-07
+ $X=26.46 $Y=20.9255
Rf103	VDD3#46	VDD3#47	0.815480	$MET1	$W=3.2e-07
+ $X=26.46 $Y=25.722
Rf104	VDD3#47	VDD3#48	1.307195	$MET1	$W=3.2e-07
+ $X=24.3455 $Y=26.845
Rf105	VDD3#48	VDD3#49	1.671503	$MET1	$W=3.2e-07
+ $X=15.12 $Y=25.7255
Rf106	VDD3#49	VDD3#50	0.401561	$MET1	$W=3.2e-07
+ $X=15.12 $Y=24.47
Rf107	VDD3#50	VDD3#40	0.569158	$MET1	$W=3.2e-07
+ $X=15.12 $Y=21.115
Rf108	VDD3#41	VDD3#42	0.394737	$MET1	$W=3.2e-07
+ $X=15.12 $Y=17.3825
Rf109	VDD3#41	VDD3#43	0.394737	$MET1	$W=3.2e-07
+ $X=19.8525 $Y=13.145
Rf110	VDD3#41	VDD3#44	1.875000	$MET1	$W=3.2e-07
+ $X=25.285 $Y=13.145
Rf111	VDD3#41	VDD3#45	0.394737	$MET1	$W=3.2e-07
+ $X=26.46 $Y=17.3825
Rf112	VDD3#41	VDD3#46	0.681818	$MET1	$W=3.2e-07
+ $X=26.46 $Y=24.47
Rf113	VDD3#41	VDD3#47	1.875000	$MET1	$W=3.2e-07
+ $X=25.285 $Y=26.845
Rf114	VDD3#41	VDD3#48	0.394737	$MET1	$W=3.2e-07
+ $X=19.8525 $Y=26.845
Rf115	VDD3#41	VDD3#49	0.681818	$MET1	$W=3.2e-07
+ $X=15.12 $Y=24.47
Rf117	net24#7	net24#38	0.357990	$MET1	$W=3.2e-07
+ $X=25.34 $Y=69.105
Rf118	net24#38	net24#5	0.357990	$MET1	$W=3.2e-07
+ $X=23.82 $Y=69.105
Rf120	net24#7	net24#41	0.279125	$MET1	$W=3.2e-07
+ $X=26.1 $Y=69.695
Rf122	net24#38	net24#44	0.218089	$MET1	$W=3.2e-07
+ $X=24.58 $Y=68.82
Rf123	net24#44	net24#45	1.209742	$MET1	$W=3.2e-07
+ $X=24.58 $Y=67.348
Rf124	net24#45	net24#46	1.417122	$MET1	$W=3.2e-07
+ $X=24.58 $Y=58.0855
Rf125	net24#5	net24#47	0.279125	$MET1	$W=3.2e-07
+ $X=23.06 $Y=69.695
Rf129	net24#43	net24#44	2.500000	$MET1	$W=3.2e-07
+ $X=24.58 $Y=68.06
Rf130	net24#43	net24#45	0.416667	$MET1	$W=3.2e-07
+ $X=24.58 $Y=63.0325
Rf133	net1#4	net1#23	0.168437	$MET1	$W=3.2e-07
+ $X=26.71 $Y=50.225
Rf136	net17#30	net17#31	3.709742	$MET1	$W=3.2e-07
+ $X=27.62 $Y=68.06
Rf137	net17#31	net17#32	2.850122	$MET1	$W=3.2e-07
+ $X=27.62 $Y=57.4455
Rf138	net17#30	net17#31	0.416667	$MET1	$W=3.2e-07
+ $X=27.62 $Y=63.0325
Rf139	net1#26	net1#27	3.709742	$MET1	$W=3.2e-07
+ $X=28.23 $Y=48.82
Rf140	net1#27	net1#28	1.265528	$MET1	$W=3.2e-07
+ $X=28.23 $Y=39.1605
Rf141	net1#26	net1#27	0.416667	$MET1	$W=3.2e-07
+ $X=28.23 $Y=43.7925
Rf144	net17#5	net17#36	3.549375	$MET1	$W=3.2e-07
+ $X=27.495 $Y=94.025
Rf147	net17#7	net17#40	2.596500	$MET1	$W=3.2e-07
+ $X=27.495 $Y=76.645
Rf148	net18#8	net18#7	1.627010	$MET1	$W=3.2e-07
+ $X=29.015 $Y=106.27
Rf149	net18#8	net18#9	1.287786	$MET1	$W=3.2e-07
+ $X=29.015 $Y=109.1495
Rf150	net18#7	net18#8	2.500000	$MET1	$W=3.2e-07
+ $X=29.015 $Y=106.27
Rf151	VDD3#52	VDD3#53	2.161719	$MET1	$W=3.2e-07
+ $X=29.715 $Y=107.6245
Rf152	VDD3#52	VDD3#51	1.627010	$MET1	$W=3.2e-07
+ $X=29.715 $Y=105.5505
Rf153	VDD3#51	VDD3#52	2.500000	$MET1	$W=3.2e-07
+ $X=29.715 $Y=106.27
Rf154	VDD3#55	VDD3#56	2.161719	$MET1	$W=3.2e-07
+ $X=29.715 $Y=88.2645
Rf155	VDD3#55	VDD3#54	1.627010	$MET1	$W=3.2e-07
+ $X=29.715 $Y=86.1905
Rf156	VDD3#54	VDD3#55	2.500000	$MET1	$W=3.2e-07
+ $X=29.715 $Y=86.91
Rf159	net17#42	net17#45	1.027893	$MET1	$W=3.2e-07
+ $X=29.015 $Y=89.305
Rf160	net17#45	net17#44	1.627010	$MET1	$W=3.2e-07
+ $X=29.015 $Y=86.1905
Rf161	net17#44	net17#45	2.500000	$MET1	$W=3.2e-07
+ $X=29.015 $Y=86.91
Rf164	net1#6	net1#32	0.168437	$MET1	$W=3.2e-07
+ $X=29.75 $Y=50.225
Rf167	net13#25	net13#26	3.709742	$MET1	$W=3.2e-07
+ $X=31.27 $Y=48.82
Rf168	net13#26	net13#27	1.573528	$MET1	$W=3.2e-07
+ $X=31.27 $Y=38.5205
Rf169	net13#25	net13#26	0.416667	$MET1	$W=3.2e-07
+ $X=31.27 $Y=43.7925
Rf172	net17#9	net17#49	3.549375	$MET1	$W=3.2e-07
+ $X=31.235 $Y=94.025
Rf175	net17#11	net17#53	2.596500	$MET1	$W=3.2e-07
+ $X=31.235 $Y=76.645
Rf176	net30	net30#2	3.709742	$MET1	$W=3.2e-07
+ $X=32.295 $Y=68.06
Rf177	net30#2	net30#3	1.725122	$MET1	$W=3.2e-07
+ $X=32.295 $Y=57.4455
Rf178	net30	net30#2	0.416667	$MET1	$W=3.2e-07
+ $X=32.295 $Y=63.0325
Rf179	net18#11	net18#10	1.627010	$MET1	$W=3.2e-07
+ $X=32.755 $Y=86.91
Rf180	net18#11	net18#12	1.287786	$MET1	$W=3.2e-07
+ $X=32.755 $Y=89.7895
Rf181	net18#10	net18#11	2.500000	$MET1	$W=3.2e-07
+ $X=32.755 $Y=86.91
Rf182	VDD3#58	VDD3#59	2.161719	$MET1	$W=3.2e-07
+ $X=33.455 $Y=107.6245
Rf183	VDD3#58	VDD3#57	1.627010	$MET1	$W=3.2e-07
+ $X=33.455 $Y=105.5505
Rf184	VDD3#57	VDD3#58	2.500000	$MET1	$W=3.2e-07
+ $X=33.455 $Y=106.27
Rf185	VDD3#61	VDD3#62	2.161719	$MET1	$W=3.2e-07
+ $X=33.455 $Y=88.2645
Rf186	VDD3#61	VDD3#60	1.627010	$MET1	$W=3.2e-07
+ $X=33.455 $Y=86.1905
Rf187	VDD3#60	VDD3#61	2.500000	$MET1	$W=3.2e-07
+ $X=33.455 $Y=86.91
Rf190	net17#55	net17#58	1.027893	$MET1	$W=3.2e-07
+ $X=32.755 $Y=108.665
Rf191	net17#58	net17#57	1.627010	$MET1	$W=3.2e-07
+ $X=32.755 $Y=105.5505
Rf192	net17#57	net17#58	2.500000	$MET1	$W=3.2e-07
+ $X=32.755 $Y=106.27
Rf193	net23	net23#2	3.709742	$MET1	$W=3.2e-07
+ $X=34.52 $Y=48.82
Rf194	net23#2	net23#3	1.573528	$MET1	$W=3.2e-07
+ $X=34.52 $Y=38.5205
Rf195	net23	net23#2	0.416667	$MET1	$W=3.2e-07
+ $X=34.52 $Y=43.7925
Rf198	net24#9	net24#54	0.279125	$MET1	$W=3.2e-07
+ $X=33.815 $Y=69.695
Rf201	OUT1#1	OUT1#2	3.709742	$MET1	$W=3.2e-07
+ $X=35.335 $Y=68.06
Rf202	OUT1#2	OUT1#3	1.417122	$MET1	$W=3.2e-07
+ $X=35.335 $Y=58.0855
Rf203	OUT1#1	OUT1#2	0.416667	$MET1	$W=3.2e-07
+ $X=35.335 $Y=63.0325
Rf206	net17#13	net17#62	3.549375	$MET1	$W=3.2e-07
+ $X=34.975 $Y=94.025
Rf209	net17#15	net17#66	2.596500	$MET1	$W=3.2e-07
+ $X=34.975 $Y=76.645
Rf210	net30#5	net30#4	1.627010	$MET1	$W=3.2e-07
+ $X=36.495 $Y=106.27
Rf211	net30#5	net30#6	1.595786	$MET1	$W=3.2e-07
+ $X=36.495 $Y=109.7895
Rf212	net30#4	net30#5	2.500000	$MET1	$W=3.2e-07
+ $X=36.495 $Y=106.27
Rf213	net30#8	net30#7	1.627010	$MET1	$W=3.2e-07
+ $X=36.495 $Y=86.91
Rf214	net30#8	net30#9	1.595786	$MET1	$W=3.2e-07
+ $X=36.495 $Y=90.4295
Rf215	net30#7	net30#8	2.500000	$MET1	$W=3.2e-07
+ $X=36.495 $Y=86.91
Rf218	net1#8	net1#38	0.168437	$MET1	$W=3.2e-07
+ $X=36.04 $Y=50.225
Rf221	VDD3#64	VDD3#65	2.161719	$MET1	$W=3.2e-07
+ $X=37.195 $Y=107.6245
Rf222	VDD3#64	VDD3#63	1.627010	$MET1	$W=3.2e-07
+ $X=37.195 $Y=105.5505
Rf223	VDD3#63	VDD3#64	2.500000	$MET1	$W=3.2e-07
+ $X=37.195 $Y=106.27
Rf224	VDD3#67	VDD3#68	2.161719	$MET1	$W=3.2e-07
+ $X=37.195 $Y=88.2645
Rf225	VDD3#67	VDD3#66	1.627010	$MET1	$W=3.2e-07
+ $X=37.195 $Y=86.1905
Rf226	VDD3#66	VDD3#67	2.500000	$MET1	$W=3.2e-07
+ $X=37.195 $Y=86.91
Rf227	net24#57	net24#58	3.709742	$MET1	$W=3.2e-07
+ $X=37.56 $Y=48.82
Rf228	net24#58	net24#59	1.265528	$MET1	$W=3.2e-07
+ $X=37.56 $Y=39.1605
Rf229	net24#57	net24#58	0.416667	$MET1	$W=3.2e-07
+ $X=37.56 $Y=43.7925
Rf232	net24#11	net24#63	0.279125	$MET1	$W=3.2e-07
+ $X=36.855 $Y=69.695
Rf235	net30#10	net30#11	3.709742	$MET1	$W=3.2e-07
+ $X=38.375 $Y=68.06
Rf236	net30#11	net30#12	2.850122	$MET1	$W=3.2e-07
+ $X=38.375 $Y=57.4455
Rf237	net30#10	net30#11	0.416667	$MET1	$W=3.2e-07
+ $X=38.375 $Y=63.0325
Rf240	net17#17	net17#70	3.549375	$MET1	$W=3.2e-07
+ $X=38.715 $Y=94.025
Rf243	net1#10	net1#44	0.168437	$MET1	$W=3.2e-07
+ $X=39.08 $Y=50.225
Rf246	VDD3#70	VDD3#71	1.210344	$MET1	$W=3.2e-07
+ $X=40.235 $Y=86.91
Rf247	VDD3#71	VDD3#5	2.943511	$MET1	$W=3.2e-07
+ $X=40.235 $Y=77.4555
Rf248	VDD3#70	VDD3#73	2.161719	$MET1	$W=3.2e-07
+ $X=40.235 $Y=88.2645
Rf249	VDD3#69	VDD3#70	2.500000	$MET1	$W=3.2e-07
+ $X=40.235 $Y=86.91
Rf250	VDD3#69	VDD3#71	0.416667	$MET1	$W=3.2e-07
+ $X=40.235 $Y=81.88
Rf251	net47#2	net47	1.627010	$MET1	$W=3.2e-07
+ $X=40.235 $Y=106.27
Rf252	net47#2	net47#3	2.211786	$MET1	$W=3.2e-07
+ $X=40.235 $Y=111.0695
Rf253	net47	net47#2	2.500000	$MET1	$W=3.2e-07
+ $X=40.235 $Y=106.27
Rf254	net23#4	net23#5	3.709742	$MET1	$W=3.2e-07
+ $X=40.6 $Y=48.82
Rf255	net23#5	net23#6	1.573528	$MET1	$W=3.2e-07
+ $X=40.6 $Y=38.5205
Rf256	net23#4	net23#5	0.416667	$MET1	$W=3.2e-07
+ $X=40.6 $Y=43.7925
Rf257	VDD3#75	VDD3#76	2.161719	$MET1	$W=3.2e-07
+ $X=40.935 $Y=107.6245
Rf258	VDD3#75	VDD3#74	1.627010	$MET1	$W=3.2e-07
+ $X=40.935 $Y=105.5505
Rf259	VDD3#74	VDD3#75	2.500000	$MET1	$W=3.2e-07
+ $X=40.935 $Y=106.27
Rf260	net40#7	net40#8	3.709742	$MET1	$W=3.2e-07
+ $X=43.11 $Y=68.06
Rf261	net40#8	net40#9	1.725122	$MET1	$W=3.2e-07
+ $X=43.11 $Y=57.4455
Rf262	net40#7	net40#8	0.416667	$MET1	$W=3.2e-07
+ $X=43.11 $Y=63.0325
Rf263	VDD3#9	VDD3#79	2.943511	$MET1	$W=3.2e-07
+ $X=40.935 $Y=77.4545
Rf264	VDD3#79	VDD3#80	1.210344	$MET1	$W=3.2e-07
+ $X=40.935 $Y=86.1895
Rf265	VDD3#80	VDD3#81	2.161719	$MET1	$W=3.2e-07
+ $X=40.935 $Y=88.2645
Rf266	VDD3#78	VDD3#79	0.416667	$MET1	$W=3.2e-07
+ $X=40.935 $Y=81.88
Rf267	VDD3#78	VDD3#80	2.500000	$MET1	$W=3.2e-07
+ $X=40.935 $Y=86.91
Rf268	VDD3#83	VDD3#84	1.210344	$MET1	$W=3.2e-07
+ $X=43.975 $Y=106.27
Rf269	VDD3#84	VDD3#7	2.943511	$MET1	$W=3.2e-07
+ $X=43.975 $Y=96.8155
Rf270	VDD3#83	VDD3#86	2.161719	$MET1	$W=3.2e-07
+ $X=43.975 $Y=107.6245
Rf271	VDD3#82	VDD3#83	2.500000	$MET1	$W=3.2e-07
+ $X=43.975 $Y=106.27
Rf272	VDD3#82	VDD3#84	0.416667	$MET1	$W=3.2e-07
+ $X=43.975 $Y=101.24
Rf273	VDD3#88	VDD3#89	2.161719	$MET1	$W=3.2e-07
+ $X=43.975 $Y=88.2645
Rf274	VDD3#88	VDD3#87	1.627010	$MET1	$W=3.2e-07
+ $X=43.975 $Y=86.1905
Rf275	VDD3#87	VDD3#88	2.500000	$MET1	$W=3.2e-07
+ $X=43.975 $Y=86.91
Rf278	net24#13	net24#69	0.279125	$MET1	$W=3.2e-07
+ $X=44.63 $Y=69.695
Rf281	OUT2#1	OUT2#2	3.709742	$MET1	$W=3.2e-07
+ $X=46.15 $Y=68.06
Rf282	OUT2#2	OUT2#3	1.417122	$MET1	$W=3.2e-07
+ $X=46.15 $Y=58.0855
Rf283	OUT2#1	OUT2#2	0.416667	$MET1	$W=3.2e-07
+ $X=46.15 $Y=63.0325
Rf284	net25#3	net25#4	3.538297	$MET1	$W=3.2e-07
+ $X=48.005 $Y=21.7955
Rf285	net25#4	net25#5	0.171445	$MET1	$W=3.2e-07
+ $X=48.005 $Y=19.5195
Rf286	net25#5	net25#7	1.587680	$MET1	$W=3.2e-07
+ $X=47.6445 $Y=15.415
Rf287	net25#7	net25#6	3.155726	$MET1	$W=3.2e-07
+ $X=47.145 $Y=21.322
Rf288	net25#3	net25#5	0.416667	$MET1	$W=3.2e-07
+ $X=48.005 $Y=19.1625
Rf289	net25#6	net25#7	0.416667	$MET1	$W=3.2e-07
+ $X=47.145 $Y=19.025
Rf292	net24#15	net24#75	0.279125	$MET1	$W=3.2e-07
+ $X=47.67 $Y=69.695
Rf295	net40#10	net40#11	3.709742	$MET1	$W=3.2e-07
+ $X=49.19 $Y=68.06
Rf296	net40#11	net40#12	2.850122	$MET1	$W=3.2e-07
+ $X=49.19 $Y=57.4455
Rf297	net40#10	net40#11	0.416667	$MET1	$W=3.2e-07
+ $X=49.19 $Y=63.0325
Rf298	net23#7	net23#8	2.788917	$MET1	$W=1.17e-06
+ $X=51.045 $Y=19.875
Rf299	net23#8	net23#7	0.423233	$MET1	$W=8.375e-06
+ $X=51.045 $Y=19.875
Rf300	net47#4	net47#5	2.788917	$MET1	$W=1.17e-06
+ $X=53.575 $Y=63.745
Rf301	net47#5	net47#4	0.423233	$MET1	$W=8.375e-06
+ $X=53.575 $Y=63.745
Rf302	net25#8	net25#9	2.788917	$MET1	$W=1.17e-06
+ $X=54.085 $Y=19.875
Rf303	net25#9	net25#8	0.423233	$MET1	$W=8.375e-06
+ $X=54.085 $Y=19.875
Rf304	VDD3#91	VDD3#92	1.944250	$MET1	$W=3.2e-07
+ $X=54.825 $Y=113.345
Rf305	VDD3#92	VDD3#93	2.065766	$MET1	$W=3.2e-07
+ $X=54.825 $Y=100.973
Rf306	VDD3#93	VDD3#94	2.122914	$MET1	$W=3.2e-07
+ $X=54.825 $Y=92.388
Rf307	VDD3#94	VDD3#95	2.172242	$MET1	$W=3.2e-07
+ $X=54.825 $Y=81.2055
Rf308	VDD3#95	VDD3#96	1.834527	$MET1	$W=3.2e-07
+ $X=54.825 $Y=76.623
Rf309	VDD3#96	VDD3#97	1.822734	$MET1	$W=3.2e-07
+ $X=48.008 $Y=74.58
Rf310	VDD3#97	VDD3#98	2.065766	$MET1	$W=3.2e-07
+ $X=39.423 $Y=74.58
Rf311	VDD3#98	VDD3#99	2.065766	$MET1	$W=3.2e-07
+ $X=30.838 $Y=74.58
Rf312	VDD3#99	VDD3#100	2.118102	$MET1	$W=3.2e-07
+ $X=22.253 $Y=74.58
Rf313	VDD3#100	VDD3#101	2.087785	$MET1	$W=3.2e-07
+ $X=12.985 $Y=76.5395
Rf314	VDD3#101	VDD3#102	2.086219	$MET1	$W=3.2e-07
+ $X=12.985 $Y=80.9545
Rf315	VDD3#102	VDD3#103	2.083812	$MET1	$W=3.2e-07
+ $X=12.985 $Y=91.6645
Rf316	VDD3#103	VDD3#104	2.083812	$MET1	$W=3.2e-07
+ $X=12.985 $Y=100.3145
Rf317	VDD3#104	VDD3#105	1.783427	$MET1	$W=3.2e-07
+ $X=12.925 $Y=110.9245
Rf318	VDD3#105	VDD3#106	0.021000	$MET1	$W=4.4e-07
+ $X=12.945 $Y=113.13
Rf319	VDD3#106	VDD3#107	1.715334	$MET1	$W=3.2e-07
+ $X=13.2375 $Y=116.88
Rf320	VDD3#107	VDD3#108	2.065766	$MET1	$W=3.2e-07
+ $X=21.822 $Y=116.88
Rf321	VDD3#108	VDD3#109	2.065766	$MET1	$W=3.2e-07
+ $X=30.407 $Y=116.88
Rf322	VDD3#109	VDD3#110	2.125922	$MET1	$W=3.2e-07
+ $X=38.992 $Y=116.88
Rf323	VDD3#110	VDD3#111	1.874469	$MET1	$W=3.2e-07
+ $X=48.0745 $Y=116.88
Rf324	VDD3#111	VDD3#112	1.206141	$MET1	$W=3.2e-07
+ $X=54.5745 $Y=116.88
Rf325	VDD3#112	VDD3#91	0.402693	$MET1	$W=3.2e-07
+ $X=54.825 $Y=113.515
Rf326	VDD3#90	VDD3#91	0.500000	$MET1	$W=3.2e-07
+ $X=54.825 $Y=113.345
Rf327	VDD3#90	VDD3#92	0.441176	$MET1	$W=3.2e-07
+ $X=54.825 $Y=105.265
Rf328	VDD3#90	VDD3#93	0.441176	$MET1	$W=3.2e-07
+ $X=54.825 $Y=96.68
Rf329	VDD3#90	VDD3#94	0.416667	$MET1	$W=3.2e-07
+ $X=54.825 $Y=87.8575
Rf330	VDD3#90	VDD3#95	0.416667	$MET1	$W=3.2e-07
+ $X=54.825 $Y=78.83
Rf331	VDD3#90	VDD3#96	0.576923	$MET1	$W=3.2e-07
+ $X=51.29 $Y=74.58
Rf332	VDD3#90	VDD3#97	0.441176	$MET1	$W=3.2e-07
+ $X=43.715 $Y=74.58
Rf333	VDD3#90	VDD3#98	0.441176	$MET1	$W=3.2e-07
+ $X=35.13 $Y=74.58
Rf334	VDD3#90	VDD3#99	0.441176	$MET1	$W=3.2e-07
+ $X=26.545 $Y=74.58
Rf335	VDD3#90	VDD3#100	0.416667	$MET1	$W=3.2e-07
+ $X=17.7425 $Y=74.58
Rf336	VDD3#90	VDD3#101	0.441176	$MET1	$W=3.2e-07
+ $X=12.985 $Y=78.66
Rf337	VDD3#90	VDD3#102	0.441176	$MET1	$W=3.2e-07
+ $X=12.985 $Y=87.33
Rf338	VDD3#90	VDD3#103	0.441176	$MET1	$W=3.2e-07
+ $X=12.985 $Y=95.99
Rf339	VDD3#90	VDD3#104	0.441176	$MET1	$W=3.2e-07
+ $X=12.985 $Y=104.65
Rf340	VDD3#90	VDD3#105	0.468750	$MET1	$W=3.2e-07
+ $X=12.985 $Y=113.06
Rf341	VDD3#90	VDD3#107	0.441176	$MET1	$W=3.2e-07
+ $X=17.53 $Y=116.88
Rf342	VDD3#90	VDD3#108	0.441176	$MET1	$W=3.2e-07
+ $X=26.115 $Y=116.88
Rf343	VDD3#90	VDD3#109	0.441176	$MET1	$W=3.2e-07
+ $X=34.7 $Y=116.88
Rf344	VDD3#90	VDD3#110	0.416667	$MET1	$W=3.2e-07
+ $X=43.535 $Y=116.88
Rf345	VDD3#90	VDD3#111	0.576923	$MET1	$W=3.2e-07
+ $X=51.325 $Y=116.88
Rf348	net24#17	net24#81	0.094019	$MET1	$W=9.8e-07
+ $X=55.095 $Y=69.67
Rf349	OUT3#1	OUT3#2	2.788917	$MET1	$W=1.17e-06
+ $X=56.615 $Y=63.745
Rf350	OUT3#2	OUT3#1	0.423233	$MET1	$W=8.375e-06
+ $X=56.615 $Y=63.745
Rf351	net23#9	net23#10	2.788917	$MET1	$W=1.17e-06
+ $X=57.125 $Y=19.875
Rf352	net23#10	net23#9	0.423233	$MET1	$W=8.375e-06
+ $X=57.125 $Y=19.875
Rf353	net25#10	net25#11	2.788917	$MET1	$W=1.17e-06
+ $X=60.165 $Y=19.875
Rf354	net25#11	net25#10	0.423233	$MET1	$W=8.375e-06
+ $X=60.165 $Y=19.875
Rf355	net23#11	net23#12	2.788917	$MET1	$W=1.17e-06
+ $X=63.205 $Y=19.875
Rf356	net23#12	net23#11	0.423233	$MET1	$W=8.375e-06
+ $X=63.205 $Y=19.875
Rf357	net25#12	net25#13	2.788917	$MET1	$W=1.17e-06
+ $X=66.245 $Y=19.875
Rf358	net25#13	net25#12	0.423233	$MET1	$W=8.375e-06
+ $X=66.245 $Y=19.875
Rf359	net25#2	net25#15	0.937500	$MET1	$W=9.6e-07
+ $X=64.765 $Y=41.965
Rf360	net23#13	net23#14	2.788917	$MET1	$W=1.17e-06
+ $X=69.285 $Y=19.875
Rf361	net23#14	net23#13	0.423233	$MET1	$W=8.375e-06
+ $X=69.285 $Y=19.875
Rf362	net13#28	net13#29	0.057750	$MET1	$W=2.38e-06
+ $X=68.995 $Y=25.285
Rf363	net13#29	net13#30	0.115026	$MET1	$W=3.27e-06
+ $X=65.465 $Y=25.285
Rf364	net13#30	net13#31	1.162449	$MET1	$W=6.805e-06
+ $X=63.1575 $Y=25.285
Rf365	net13#31	net13#32	0.361096	$MET1	$W=1.695e-06
+ $X=57.0775 $Y=25.285
Rf366	net13#32	net13#15	1.051601	$MET1	$W=8.38e-06
+ $X=53.54 $Y=25.285
Rf367	net25#16	net25#17	3.155726	$MET1	$W=3.2e-07
+ $X=73.185 $Y=24.3475
Rf368	net25#17	net25#19	1.587680	$MET1	$W=3.2e-07
+ $X=72.687 $Y=15.415
Rf369	net25#19	net25#20	0.171445	$MET1	$W=3.2e-07
+ $X=72.325 $Y=19.518
Rf370	net25#20	net25#18	3.538297	$MET1	$W=3.2e-07
+ $X=72.325 $Y=21.7945
Rf371	net25#16	net25#17	0.416667	$MET1	$W=3.2e-07
+ $X=73.185 $Y=19.025
Rf372	net25#18	net25#19	0.416667	$MET1	$W=3.2e-07
+ $X=72.325 $Y=19.1625
Rf373	VDD3#113	VDD3#114	0.085186	$MET1	$W=1.98e-06
+ $X=55.79 $Y=27.6105
Rf374	VDD3#114	VDD3#116	1.376738	$MET1	$W=3.2e-07
+ $X=54.4875 $Y=26.845
Rf375	VDD3#116	VDD3#117	1.629995	$MET1	$W=3.2e-07
+ $X=45.375 $Y=25.728
Rf376	VDD3#117	VDD3#118	1.705430	$MET1	$W=3.2e-07
+ $X=45.375 $Y=20.927
Rf377	VDD3#118	VDD3#119	2.078160	$MET1	$W=3.2e-07
+ $X=45.375 $Y=15.1945
Rf378	VDD3#119	VDD3#120	2.072984	$MET1	$W=3.2e-07
+ $X=54.2545 $Y=13.145
Rf379	VDD3#120	VDD3#121	2.118703	$MET1	$W=3.2e-07
+ $X=62.842 $Y=13.145
Rf380	VDD3#121	VDD3#122	1.428711	$MET1	$W=3.2e-07
+ $X=71.867 $Y=13.145
Rf381	VDD3#122	VDD3#123	1.380949	$MET1	$W=3.2e-07
+ $X=74.955 $Y=15.1955
Rf382	VDD3#123	VDD3#124	1.705430	$MET1	$W=3.2e-07
+ $X=74.955 $Y=20.9255
Rf383	VDD3#124	VDD3#125	0.932784	$MET1	$W=3.2e-07
+ $X=74.955 $Y=25.7245
Rf384	VDD3#125	VDD3#126	1.428711	$MET1	$W=3.2e-07
+ $X=71.868 $Y=26.845
Rf385	VDD3#126	VDD3#127	2.118703	$MET1	$W=3.2e-07
+ $X=60.8155 $Y=26.845
Rf386	VDD3#127	VDD3#128	0.220950	$MET1	$W=3.2e-07
+ $X=58.55 $Y=26.845
Rf387	VDD3#128	VDD3#114	0.388548	$MET1	$W=3.2e-07
+ $X=56.79 $Y=26.845
Rf388	VDD3#115	VDD3#116	0.416667	$MET1	$W=3.2e-07
+ $X=49.935 $Y=26.845
Rf389	VDD3#115	VDD3#117	0.681818	$MET1	$W=3.2e-07
+ $X=45.375 $Y=24.47
Rf390	VDD3#115	VDD3#118	0.394737	$MET1	$W=3.2e-07
+ $X=45.375 $Y=17.3825
Rf391	VDD3#115	VDD3#119	0.416667	$MET1	$W=3.2e-07
+ $X=49.935 $Y=13.145
Rf392	VDD3#115	VDD3#120	0.416667	$MET1	$W=3.2e-07
+ $X=58.55 $Y=13.145
Rf393	VDD3#115	VDD3#121	0.394737	$MET1	$W=3.2e-07
+ $X=67.355 $Y=13.145
Rf394	VDD3#115	VDD3#122	1.250000	$MET1	$W=3.2e-07
+ $X=73.2925 $Y=13.145
Rf395	VDD3#115	VDD3#123	0.394737	$MET1	$W=3.2e-07
+ $X=74.955 $Y=17.3825
Rf396	VDD3#115	VDD3#124	0.681818	$MET1	$W=3.2e-07
+ $X=74.955 $Y=24.47
Rf397	VDD3#115	VDD3#125	1.250000	$MET1	$W=3.2e-07
+ $X=73.2925 $Y=26.845
Rf398	VDD3#115	VDD3#126	0.394737	$MET1	$W=3.2e-07
+ $X=67.355 $Y=26.845
Rf399	VDD3#115	VDD3#127	0.416667	$MET1	$W=3.2e-07
+ $X=58.55 $Y=26.845
Rf400	GNDA#2	GNDA#14	0.941911	$MET1	$W=9.6e-07
+ $X=77.6 $Y=41.965
Rf401	VDD3#130	VDD3#131	2.138917	$MET1	$W=3.2e-07
+ $X=80.475 $Y=44.585
Rf402	VDD3#131	VDD3#132	2.121711	$MET1	$W=3.2e-07
+ $X=71.133 $Y=40.585
Rf403	VDD3#132	VDD3#133	2.091394	$MET1	$W=3.2e-07
+ $X=61.835 $Y=42.5445
Rf404	VDD3#133	VDD3#134	2.077797	$MET1	$W=3.2e-07
+ $X=61.835 $Y=46.9595
Rf405	VDD3#134	VDD3#135	2.066969	$MET1	$W=3.2e-07
+ $X=61.835 $Y=57.597
Rf406	VDD3#135	VDD3#136	2.065766	$MET1	$W=3.2e-07
+ $X=61.835 $Y=68.202
Rf407	VDD3#136	VDD3#137	0.403162	$MET1	$W=3.2e-07
+ $X=61.835 $Y=70.9595
Rf408	VDD3#137	VDD3#138	0.046219	$MET1	$W=2e-06
+ $X=61.0655 $Y=72.285
Rf409	VDD3#138	VDD3#139	0.030972	$MET1	$W=2e-06
+ $X=60.145 $Y=72.285
Rf410	VDD3#139	VDD3#141	1.124008	$MET1	$W=3.2e-07
+ $X=59.655 $Y=71.1875
Rf411	VDD3#141	VDD3#142	2.094039	$MET1	$W=3.2e-07
+ $X=59.655 $Y=60.4105
Rf412	VDD3#142	VDD3#143	1.728652	$MET1	$W=3.2e-07
+ $X=59.655 $Y=55.993
Rf413	VDD3#143	VDD3#144	1.807094	$MET1	$W=3.2e-07
+ $X=53.3805 $Y=54.035
Rf414	VDD3#144	VDD3#145	2.165625	$MET1	$W=3.2e-07
+ $X=44.3805 $Y=54.035
Rf415	VDD3#145	VDD3#146	2.165625	$MET1	$W=3.2e-07
+ $X=35.3805 $Y=54.035
Rf416	VDD3#146	VDD3#147	2.165625	$MET1	$W=3.2e-07
+ $X=26.3805 $Y=54.035
Rf417	VDD3#147	VDD3#148	2.165625	$MET1	$W=3.2e-07
+ $X=17.3805 $Y=54.035
Rf418	VDD3#148	VDD3#149	2.094402	$MET1	$W=3.2e-07
+ $X=8.13 $Y=56.012
Rf419	VDD3#137	VDD3#150	1.601475	$MET1	$W=3.2e-07
+ $X=61.835 $Y=74.0725
Rf420	VDD3#150	VDD3#151	2.076594	$MET1	$W=3.2e-07
+ $X=61.835 $Y=83.3845
Rf421	VDD3#151	VDD3#152	2.071781	$MET1	$W=3.2e-07
+ $X=61.835 $Y=92.022
Rf422	VDD3#152	VDD3#153	2.065766	$MET1	$W=3.2e-07
+ $X=61.835 $Y=100.607
Rf423	VDD3#153	VDD3#154	2.065766	$MET1	$W=3.2e-07
+ $X=61.835 $Y=109.192
Rf424	VDD3#154	VDD3#155	2.027027	$MET1	$W=3.2e-07
+ $X=63.772 $Y=118.03
Rf425	VDD3#155	VDD3#156	2.122914	$MET1	$W=3.2e-07
+ $X=68.147 $Y=118.03
Rf426	VDD3#156	VDD3#157	1.209742	$MET1	$W=3.2e-07
+ $X=79.2245 $Y=118.03
Rf427	VDD3#157	VDD3#158	0.992339	$MET1	$W=3.2e-07
+ $X=80.475 $Y=116.343
Rf428	VDD3#158	VDD3#159	1.944250	$MET1	$W=3.2e-07
+ $X=80.475 $Y=112.4755
Rf429	VDD3#159	VDD3#160	2.065766	$MET1	$W=3.2e-07
+ $X=80.475 $Y=102.123
Rf430	VDD3#160	VDD3#161	2.065766	$MET1	$W=3.2e-07
+ $X=80.475 $Y=93.538
Rf431	VDD3#161	VDD3#162	2.065766	$MET1	$W=3.2e-07
+ $X=80.475 $Y=84.953
Rf432	VDD3#162	VDD3#163	2.119906	$MET1	$W=3.2e-07
+ $X=80.475 $Y=76.368
Rf433	VDD3#163	VDD3#164	2.169234	$MET1	$W=3.2e-07
+ $X=80.475 $Y=67.3355
Rf434	VDD3#164	VDD3#165	2.165625	$MET1	$W=3.2e-07
+ $X=80.475 $Y=58.3355
Rf435	VDD3#165	VDD3#166	1.591239	$MET1	$W=3.2e-07
+ $X=80.475 $Y=53.835
Rf436	VDD3#149	VDD3#167	2.094641	$MET1	$W=3.2e-07
+ $X=8.13 $Y=60.462
Rf437	VDD3#167	VDD3#168	1.842462	$MET1	$W=3.2e-07
+ $X=9.5145 $Y=71.445
Rf438	VDD3#168	VDD3#169	0.018384	$MET1	$W=2e-06
+ $X=11.91 $Y=72.265
Rf439	VDD3#169	VDD3#170	2.131114	$MET1	$W=3.2e-07
+ $X=14.9475 $Y=71.445
Rf440	VDD3#170	VDD3#171	2.166227	$MET1	$W=3.2e-07
+ $X=25.8945 $Y=71.445
Rf441	VDD3#171	VDD3#172	2.167430	$MET1	$W=3.2e-07
+ $X=34.902 $Y=71.445
Rf442	VDD3#172	VDD3#173	2.165625	$MET1	$W=3.2e-07
+ $X=43.9045 $Y=71.445
Rf443	VDD3#173	VDD3#174	1.925000	$MET1	$W=3.2e-07
+ $X=54.5295 $Y=71.445
Rf444	VDD3#174	VDD3#175	0.687109	$MET1	$W=3.2e-07
+ $X=57.8845 $Y=71.445
Rf445	VDD3#166	VDD3#130	0.568583	$MET1	$W=3.2e-07
+ $X=80.475 $Y=44.755
Rf446	VDD3#175	VDD3#139	0.011859	$MET1	$W=2e-06
+ $X=59.345 $Y=72.29
Rf447	VDD3#129	VDD3#130	0.394737	$MET1	$W=3.2e-07
+ $X=80.475 $Y=44.585
Rf448	VDD3#129	VDD3#131	0.441176	$MET1	$W=3.2e-07
+ $X=75.425 $Y=40.585
Rf449	VDD3#129	VDD3#132	0.416667	$MET1	$W=3.2e-07
+ $X=66.6075 $Y=40.585
Rf450	VDD3#129	VDD3#133	0.441176	$MET1	$W=3.2e-07
+ $X=61.835 $Y=44.665
Rf451	VDD3#129	VDD3#134	0.441176	$MET1	$W=3.2e-07
+ $X=61.835 $Y=53.3
Rf452	VDD3#129	VDD3#135	0.441176	$MET1	$W=3.2e-07
+ $X=61.835 $Y=61.89
Rf453	VDD3#129	VDD3#136	0.441176	$MET1	$W=3.2e-07
+ $X=61.835 $Y=70.475
Rf454	VDD3#140	VDD3#141	0.441176	$MET1	$W=3.2e-07
+ $X=59.655 $Y=66.8175
Rf455	VDD3#140	VDD3#142	0.441176	$MET1	$W=3.2e-07
+ $X=59.655 $Y=58.115
Rf456	VDD3#140	VDD3#143	0.625000	$MET1	$W=3.2e-07
+ $X=56.39 $Y=54.035
Rf457	VDD3#140	VDD3#144	0.416667	$MET1	$W=3.2e-07
+ $X=48.88 $Y=54.035
Rf458	VDD3#140	VDD3#145	0.416667	$MET1	$W=3.2e-07
+ $X=39.88 $Y=54.035
Rf459	VDD3#140	VDD3#146	0.416667	$MET1	$W=3.2e-07
+ $X=30.88 $Y=54.035
Rf460	VDD3#140	VDD3#147	0.416667	$MET1	$W=3.2e-07
+ $X=21.88 $Y=54.035
Rf461	VDD3#140	VDD3#148	0.416667	$MET1	$W=3.2e-07
+ $X=12.88 $Y=54.035
Rf462	VDD3#140	VDD3#149	0.441176	$MET1	$W=3.2e-07
+ $X=8.13 $Y=58.15
Rf463	VDD3#129	VDD3#150	0.441176	$MET1	$W=3.2e-07
+ $X=61.835 $Y=79.075
Rf464	VDD3#129	VDD3#151	0.441176	$MET1	$W=3.2e-07
+ $X=61.835 $Y=87.705
Rf465	VDD3#129	VDD3#152	0.441176	$MET1	$W=3.2e-07
+ $X=61.835 $Y=96.315
Rf466	VDD3#129	VDD3#153	0.441176	$MET1	$W=3.2e-07
+ $X=61.835 $Y=104.9
Rf467	VDD3#129	VDD3#154	0.441176	$MET1	$W=3.2e-07
+ $X=61.835 $Y=113.485
Rf468	VDD3#129	VDD3#155	0.441176	$MET1	$W=3.2e-07
+ $X=65.875 $Y=118.03
Rf469	VDD3#129	VDD3#156	0.416667	$MET1	$W=3.2e-07
+ $X=74.6975 $Y=118.03
Rf470	VDD3#129	VDD3#157	3.750000	$MET1	$W=3.2e-07
+ $X=79.725 $Y=118.03
Rf471	VDD3#129	VDD3#158	0.500000	$MET1	$W=3.2e-07
+ $X=80.475 $Y=114.495
Rf472	VDD3#129	VDD3#159	0.441176	$MET1	$W=3.2e-07
+ $X=80.475 $Y=106.415
Rf473	VDD3#129	VDD3#160	0.441176	$MET1	$W=3.2e-07
+ $X=80.475 $Y=97.83
Rf474	VDD3#129	VDD3#161	0.441176	$MET1	$W=3.2e-07
+ $X=80.475 $Y=89.245
Rf475	VDD3#129	VDD3#162	0.441176	$MET1	$W=3.2e-07
+ $X=80.475 $Y=80.66
Rf476	VDD3#129	VDD3#163	0.416667	$MET1	$W=3.2e-07
+ $X=80.475 $Y=71.85
Rf477	VDD3#129	VDD3#164	0.416667	$MET1	$W=3.2e-07
+ $X=80.475 $Y=62.835
Rf478	VDD3#129	VDD3#165	0.416667	$MET1	$W=3.2e-07
+ $X=80.475 $Y=53.835
Rf479	VDD3#140	VDD3#167	0.441176	$MET1	$W=3.2e-07
+ $X=8.13 $Y=66.855
Rf480	VDD3#140	VDD3#169	0.416667	$MET1	$W=2e-06
+ $X=12.3875 $Y=71.445
Rf481	VDD3#140	VDD3#170	0.416667	$MET1	$W=3.2e-07
+ $X=21.395 $Y=71.445
Rf482	VDD3#140	VDD3#171	0.416667	$MET1	$W=3.2e-07
+ $X=30.3975 $Y=71.445
Rf483	VDD3#140	VDD3#172	0.416667	$MET1	$W=3.2e-07
+ $X=39.405 $Y=71.445
Rf484	VDD3#140	VDD3#173	0.416667	$MET1	$W=3.2e-07
+ $X=48.405 $Y=71.445
Rf485	VDD3#140	VDD3#174	0.535714	$MET1	$W=3.2e-07
+ $X=56.405 $Y=71.445
Rf486	GNDA	GNDA#15	0.029626	$MET1	$W=5.01e-06
+ $X=3.11 $Y=2.39
Rf487	GNDA#15	GNDA#17	0.370824	$MET1	$W=3.2e-07
+ $X=5.04 $Y=6.4025
Rf488	GNDA#17	GNDA#18	2.065766	$MET1	$W=3.2e-07
+ $X=5.04 $Y=9.377
Rf489	GNDA#18	GNDA#19	2.065766	$MET1	$W=3.2e-07
+ $X=5.04 $Y=19.982
Rf490	GNDA#19	GNDA#20	2.065766	$MET1	$W=3.2e-07
+ $X=5.04 $Y=28.567
Rf491	GNDA#20	GNDA#21	2.119906	$MET1	$W=3.2e-07
+ $X=5.04 $Y=37.152
Rf492	GNDA#21	GNDA#22	2.169234	$MET1	$W=3.2e-07
+ $X=5.04 $Y=46.1845
Rf493	GNDA#22	GNDA#23	2.168633	$MET1	$W=3.2e-07
+ $X=5.04 $Y=55.1845
Rf494	GNDA#23	GNDA#24	2.119305	$MET1	$W=3.2e-07
+ $X=5.04 $Y=64.212
Rf495	GNDA#24	GNDA#25	2.065766	$MET1	$W=3.2e-07
+ $X=5.04 $Y=72.797
Rf496	GNDA#25	GNDA#26	2.065766	$MET1	$W=3.2e-07
+ $X=5.04 $Y=81.382
Rf497	GNDA#26	GNDA#27	2.065766	$MET1	$W=3.2e-07
+ $X=5.04 $Y=89.967
Rf498	GNDA#27	GNDA#28	2.116297	$MET1	$W=3.2e-07
+ $X=5.04 $Y=98.552
Rf499	GNDA#28	GNDA#29	2.165625	$MET1	$W=3.2e-07
+ $X=5.04 $Y=107.5545
Rf500	GNDA#29	GNDA#30	1.443750	$MET1	$W=3.2e-07
+ $X=5.04 $Y=117.1795
Rf501	GNDA#30	GNDA#31	1.355683	$MET1	$W=3.2e-07
+ $X=5.04 $Y=118.762
Rf502	GNDA#31	GNDA#32	2.065766	$MET1	$W=3.2e-07
+ $X=13.877 $Y=119.305
Rf503	GNDA#32	GNDA#33	2.065766	$MET1	$W=3.2e-07
+ $X=22.462 $Y=119.305
Rf504	GNDA#33	GNDA#34	2.065766	$MET1	$W=3.2e-07
+ $X=31.047 $Y=119.305
Rf505	GNDA#34	GNDA#35	2.065766	$MET1	$W=3.2e-07
+ $X=39.632 $Y=119.305
Rf506	GNDA#35	GNDA#36	2.124117	$MET1	$W=3.2e-07
+ $X=48.217 $Y=119.305
Rf507	GNDA#36	GNDA#37	2.173445	$MET1	$W=3.2e-07
+ $X=57.2845 $Y=119.305
Rf508	GNDA#37	GNDA#38	2.165625	$MET1	$W=3.2e-07
+ $X=66.2845 $Y=119.305
Rf509	GNDA#38	GNDA#39	2.165625	$MET1	$W=3.2e-07
+ $X=75.2845 $Y=119.305
Rf510	GNDA#39	GNDA#40	2.196667	$MET1	$W=3.2e-07
+ $X=85.035 $Y=117.6155
Rf511	GNDA#40	GNDA#41	2.187281	$MET1	$W=3.2e-07
+ $X=85.035 $Y=112.7405
Rf512	GNDA#41	GNDA#42	2.124117	$MET1	$W=3.2e-07
+ $X=85.035 $Y=101.883
Rf513	GNDA#42	GNDA#43	2.173445	$MET1	$W=3.2e-07
+ $X=85.035 $Y=92.8155
Rf514	GNDA#43	GNDA#44	2.165625	$MET1	$W=3.2e-07
+ $X=85.035 $Y=83.8155
Rf515	GNDA#44	GNDA#45	2.165625	$MET1	$W=3.2e-07
+ $X=85.035 $Y=74.8155
Rf516	GNDA#45	GNDA#46	2.165625	$MET1	$W=3.2e-07
+ $X=85.035 $Y=65.8155
Rf517	GNDA#46	GNDA#47	2.165625	$MET1	$W=3.2e-07
+ $X=85.035 $Y=56.8155
Rf518	GNDA#47	GNDA#48	2.165625	$MET1	$W=3.2e-07
+ $X=85.035 $Y=47.8155
Rf519	GNDA#48	GNDA#49	2.165625	$MET1	$W=3.2e-07
+ $X=85.035 $Y=38.8155
Rf520	GNDA#49	GNDA#50	2.165625	$MET1	$W=3.2e-07
+ $X=85.035 $Y=29.8155
Rf521	GNDA#50	GNDA#51	2.165625	$MET1	$W=3.2e-07
+ $X=85.035 $Y=20.8155
Rf522	GNDA#51	GNDA#52	2.225781	$MET1	$W=3.2e-07
+ $X=85.035 $Y=9.5655
Rf523	GNDA#52	GNDA#53	0.476671	$MET1	$W=3.2e-07
+ $X=84.218 $Y=3.355
Rf524	GNDA#53	GNDA#55	0.017526	$MET1	$W=8.075e-06
+ $X=78.743 $Y=4.8875
Rf525	GNDA#55	GNDA#56	0.064318	$MET1	$W=8.075e-06
+ $X=76.793 $Y=4.8875
Rf526	GNDA#56	GNDA#57	0.016354	$MET1	$W=8.075e-06
+ $X=70.4475 $Y=4.395
Rf527	GNDA#57	GNDA#58	0.065510	$MET1	$W=8.075e-06
+ $X=66.345 $Y=4.395
Rf528	GNDA#58	GNDA#59	0.019858	$MET1	$W=8.075e-06
+ $X=61.6675 $Y=4.395
Rf529	GNDA#59	GNDA#60	0.062005	$MET1	$W=8.075e-06
+ $X=57.5875 $Y=4.395
Rf530	GNDA#60	GNDA#61	0.023839	$MET1	$W=8.075e-06
+ $X=52.8625 $Y=4.395
Rf531	GNDA#61	GNDA#62	0.058024	$MET1	$W=8.075e-06
+ $X=48.805 $Y=4.395
Rf532	GNDA#62	GNDA#63	0.028035	$MET1	$W=8.075e-06
+ $X=45.645 $Y=4.395
Rf533	GNDA#63	GNDA#64	0.032948	$MET1	$W=8.075e-06
+ $X=40.745 $Y=4.8875
Rf534	GNDA#64	GNDA#65	0.029151	$MET1	$W=5.01e-06
+ $X=37.3905 $Y=3.355
Rf535	GNDA#65	GNDA#66	0.071998	$MET1	$W=5.01e-06
+ $X=35.3475 $Y=3.355
Rf536	GNDA#66	GNDA#68	0.028554	$MET1	$W=8.075e-06
+ $X=30.2255 $Y=4.8875
Rf537	GNDA#68	GNDA#69	0.017307	$MET1	$W=8.075e-06
+ $X=28.698 $Y=4.8875
Rf538	GNDA#69	GNDA#70	0.064222	$MET1	$W=8.075e-06
+ $X=27.79 $Y=3.065
Rf539	GNDA#70	GNDA#71	0.003433	$MET1	$W=8.075e-06
+ $X=21.055 $Y=4.36
Rf540	GNDA#71	GNDA#72	0.018165	$MET1	$W=8.075e-06
+ $X=18.79 $Y=3.535
Rf541	GNDA#72	GNDA#73	0.062434	$MET1	$W=8.075e-06
+ $X=13.392 $Y=4.8875
Rf542	GNDA#73	GNDA#74	0.023360	$MET1	$W=8.075e-06
+ $X=12.2425 $Y=5.725
Rf543	GNDA#74	GNDA#75	0.039255	$MET1	$W=5.01e-06
+ $X=9.79 $Y=3.065
Rf544	GNDA#64	GNDA#76	0.067179	$MET1	$W=3.36e-06
+ $X=39.475 $Y=9.3825
Rf545	GNDA#76	GNDA#77	0.206823	$MET1	$W=3.36e-06
+ $X=39.475 $Y=12.3745
Rf546	GNDA#77	GNDA#78	0.207052	$MET1	$W=3.36e-06
+ $X=39.475 $Y=25.6795
Rf547	GNDA#78	GNDA#79	0.125360	$MET1	$W=3.36e-06
+ $X=39.475 $Y=29.642
Rf548	GNDA#79	GNDA#80	0.073032	$MET1	$W=1.65e-06
+ $X=39.225 $Y=35
Rf549	GNDA#80	GNDA#82	0.412498	$MET1	$W=3.2e-07
+ $X=37.9775 $Y=35.735
Rf550	GNDA#82	GNDA#83	2.116297	$MET1	$W=3.2e-07
+ $X=35.123 $Y=35.735
Rf551	GNDA#83	GNDA#84	2.095605	$MET1	$W=3.2e-07
+ $X=23.85 $Y=37.7145
Rf552	GNDA#84	GNDA#85	1.978539	$MET1	$W=3.2e-07
+ $X=23.85 $Y=43.9655
Rf553	GNDA#85	GNDA#86	1.945214	$MET1	$W=3.2e-07
+ $X=23.85 $Y=49.9605
Rf554	GNDA#86	GNDA#87	2.112086	$MET1	$W=3.2e-07
+ $X=32.8945 $Y=51.665
Rf555	GNDA#87	GNDA#88	1.948824	$MET1	$W=3.2e-07
+ $X=41.94 $Y=49.9505
Rf556	GNDA#88	GNDA#89	1.978539	$MET1	$W=3.2e-07
+ $X=41.94 $Y=43.9495
Rf557	GNDA#89	GNDA#90	1.182964	$MET1	$W=3.2e-07
+ $X=41.94 $Y=37.787
Rf558	GNDA#74	GNDA#91	0.080242	$MET1	$W=3.36e-06
+ $X=9.22 $Y=9.3825
Rf559	GNDA#91	GNDA#92	0.206823	$MET1	$W=3.36e-06
+ $X=9.22 $Y=12.3745
Rf560	GNDA#92	GNDA#93	0.207052	$MET1	$W=3.36e-06
+ $X=9.22 $Y=25.6795
Rf561	GNDA#93	GNDA#94	0.125360	$MET1	$W=3.36e-06
+ $X=9.22 $Y=29.642
Rf562	GNDA#94	GNDA#95	0.103664	$MET1	$W=3.36e-06
+ $X=11.491 $Y=32.745
Rf563	GNDA#95	GNDA#96	0.201953	$MET1	$W=3.36e-06
+ $X=14.5105 $Y=32.745
Rf564	GNDA#96	GNDA#97	0.195937	$MET1	$W=3.36e-06
+ $X=27.467 $Y=32.745
Rf565	GNDA#97	GNDA#98	0.097533	$MET1	$W=3.36e-06
+ $X=30.222 $Y=32.745
Rf566	GNDA#98	GNDA#99	0.125360	$MET1	$W=3.36e-06
+ $X=32.36 $Y=29.6425
Rf567	GNDA#99	GNDA#100	0.207052	$MET1	$W=3.36e-06
+ $X=32.36 $Y=25.6805
Rf568	GNDA#100	GNDA#101	0.206823	$MET1	$W=3.36e-06
+ $X=32.36 $Y=12.3755
Rf569	GNDA#101	GNDA#102	0.014090	$MET1	$W=3.36e-06
+ $X=33.88 $Y=10
Rf570	GNDA#75	GNDA#15	0.020334	$MET1	$W=5.01e-06
+ $X=5.21 $Y=3.355
Rf571	GNDA#79	GNDA#103	0.108419	$MET1	$W=3.36e-06
+ $X=41.85 $Y=32.745
Rf572	GNDA#103	GNDA#104	0.206823	$MET1	$W=3.36e-06
+ $X=45.0795 $Y=32.745
Rf573	GNDA#104	GNDA#105	0.206307	$MET1	$W=3.36e-06
+ $X=56.242 $Y=32.745
Rf574	GNDA#105	GNDA#106	0.205161	$MET1	$W=3.36e-06
+ $X=65.2195 $Y=32.745
Rf575	GNDA#106	GNDA#107	0.182531	$MET1	$W=3.36e-06
+ $X=75.555 $Y=32.745
Rf576	GNDA#107	GNDA#108	0.011344	$MET1	$W=3.36e-06
+ $X=77.7575 $Y=33.6325
Rf577	GNDA#108	GNDA#109	0.096502	$MET1	$W=3.36e-06
+ $X=78.719 $Y=32.745
Rf578	GNDA#109	GNDA#110	0.125360	$MET1	$W=3.36e-06
+ $X=80.855 $Y=29.6425
Rf579	GNDA#110	GNDA#111	0.207052	$MET1	$W=3.36e-06
+ $X=80.855 $Y=25.6805
Rf580	GNDA#111	GNDA#112	0.206823	$MET1	$W=3.36e-06
+ $X=80.855 $Y=12.3755
Rf581	GNDA#112	GNDA#113	0.014090	$MET1	$W=3.36e-06
+ $X=82.375 $Y=10
Rf582	GNDA#90	GNDA#80	0.366708	$MET1	$W=3.2e-07
+ $X=40.06 $Y=35.735
Rf583	GNDA#102	GNDA#66	0.035396	$MET1	$W=3.36e-06
+ $X=32.36 $Y=8.935
Rf584	GNDA#113	GNDA#53	0.066030	$MET1	$W=3.36e-06
+ $X=80.855 $Y=8.935
Rf585	GNDA#16	GNDA#17	0.441176	$MET1	$W=3.2e-07
+ $X=5.04 $Y=7.105
Rf586	GNDA#16	GNDA#18	0.441176	$MET1	$W=3.2e-07
+ $X=5.04 $Y=15.69
Rf587	GNDA#16	GNDA#19	0.441176	$MET1	$W=3.2e-07
+ $X=5.04 $Y=24.275
Rf588	GNDA#16	GNDA#20	0.441176	$MET1	$W=3.2e-07
+ $X=5.04 $Y=32.86
Rf589	GNDA#16	GNDA#21	0.416667	$MET1	$W=3.2e-07
+ $X=5.04 $Y=41.67
Rf590	GNDA#16	GNDA#22	0.416667	$MET1	$W=3.2e-07
+ $X=5.04 $Y=50.685
Rf591	GNDA#16	GNDA#23	0.416667	$MET1	$W=3.2e-07
+ $X=5.04 $Y=59.6975
Rf592	GNDA#16	GNDA#24	0.441176	$MET1	$W=3.2e-07
+ $X=5.04 $Y=68.505
Rf593	GNDA#16	GNDA#25	0.441176	$MET1	$W=3.2e-07
+ $X=5.04 $Y=77.09
Rf594	GNDA#16	GNDA#26	0.441176	$MET1	$W=3.2e-07
+ $X=5.04 $Y=85.675
Rf595	GNDA#16	GNDA#27	0.441176	$MET1	$W=3.2e-07
+ $X=5.04 $Y=94.26
Rf596	GNDA#16	GNDA#28	0.416667	$MET1	$W=3.2e-07
+ $X=5.04 $Y=103.055
Rf597	GNDA#16	GNDA#29	0.416667	$MET1	$W=3.2e-07
+ $X=5.04 $Y=112.055
Rf598	GNDA#16	GNDA#30	1.250000	$MET1	$W=3.2e-07
+ $X=5.04 $Y=118.055
Rf599	GNDA#16	GNDA#31	0.441176	$MET1	$W=3.2e-07
+ $X=9.585 $Y=119.305
Rf600	GNDA#16	GNDA#32	0.441176	$MET1	$W=3.2e-07
+ $X=18.17 $Y=119.305
Rf601	GNDA#16	GNDA#33	0.441176	$MET1	$W=3.2e-07
+ $X=26.755 $Y=119.305
Rf602	GNDA#16	GNDA#34	0.441176	$MET1	$W=3.2e-07
+ $X=35.34 $Y=119.305
Rf603	GNDA#16	GNDA#35	0.441176	$MET1	$W=3.2e-07
+ $X=43.925 $Y=119.305
Rf604	GNDA#16	GNDA#36	0.416667	$MET1	$W=3.2e-07
+ $X=52.7525 $Y=119.305
Rf605	GNDA#16	GNDA#37	0.416667	$MET1	$W=3.2e-07
+ $X=61.785 $Y=119.305
Rf606	GNDA#16	GNDA#38	0.416667	$MET1	$W=3.2e-07
+ $X=70.785 $Y=119.305
Rf607	GNDA#16	GNDA#39	0.416667	$MET1	$W=3.2e-07
+ $X=79.785 $Y=119.305
Rf608	GNDA#16	GNDA#40	0.394737	$MET1	$W=3.2e-07
+ $X=85.035 $Y=115.265
Rf609	GNDA#16	GNDA#41	0.441176	$MET1	$W=3.2e-07
+ $X=85.035 $Y=106.175
Rf610	GNDA#16	GNDA#42	0.416667	$MET1	$W=3.2e-07
+ $X=85.035 $Y=97.3475
Rf611	GNDA#16	GNDA#43	0.416667	$MET1	$W=3.2e-07
+ $X=85.035 $Y=88.315
Rf612	GNDA#16	GNDA#44	0.416667	$MET1	$W=3.2e-07
+ $X=85.035 $Y=79.315
Rf613	GNDA#16	GNDA#45	0.416667	$MET1	$W=3.2e-07
+ $X=85.035 $Y=70.315
Rf614	GNDA#16	GNDA#46	0.416667	$MET1	$W=3.2e-07
+ $X=85.035 $Y=61.315
Rf615	GNDA#16	GNDA#47	0.416667	$MET1	$W=3.2e-07
+ $X=85.035 $Y=52.315
Rf616	GNDA#16	GNDA#48	0.416667	$MET1	$W=3.2e-07
+ $X=85.035 $Y=43.315
Rf617	GNDA#16	GNDA#49	0.416667	$MET1	$W=3.2e-07
+ $X=85.035 $Y=34.315
Rf618	GNDA#16	GNDA#50	0.416667	$MET1	$W=3.2e-07
+ $X=85.035 $Y=25.315
Rf619	GNDA#16	GNDA#51	0.416667	$MET1	$W=3.2e-07
+ $X=85.035 $Y=16.315
Rf620	GNDA#16	GNDA#52	0.394737	$MET1	$W=3.2e-07
+ $X=85.035 $Y=7.065
Rf621	GNDA#16	GNDA#53	0.441176	$MET1	$W=3.2e-07
+ $X=79.985 $Y=3.065
Rf622	GNDA#54	GNDA#55	0.441176	$MET1	$W=8.075e-06
+ $X=78.145 $Y=5.725
Rf623	GNDA#16	GNDA#56	0.441176	$MET1	$W=8.075e-06
+ $X=71.4 $Y=3.065
Rf624	GNDA#54	GNDA#57	0.394737	$MET1	$W=8.075e-06
+ $X=69.685 $Y=5.725
Rf625	GNDA#16	GNDA#58	0.441176	$MET1	$W=8.075e-06
+ $X=62.815 $Y=3.065
Rf626	GNDA#54	GNDA#59	0.394737	$MET1	$W=8.075e-06
+ $X=60.7325 $Y=5.725
Rf627	GNDA#16	GNDA#60	0.441176	$MET1	$W=8.075e-06
+ $X=54.23 $Y=3.065
Rf628	GNDA#54	GNDA#61	0.394737	$MET1	$W=8.075e-06
+ $X=51.73 $Y=5.725
Rf629	GNDA#16	GNDA#62	0.441176	$MET1	$W=8.075e-06
+ $X=45.645 $Y=3.065
Rf630	GNDA#54	GNDA#63	0.394737	$MET1	$W=8.075e-06
+ $X=42.705 $Y=5.725
Rf631	GNDA#16	GNDA#65	0.416667	$MET1	$W=5.01e-06
+ $X=36.82 $Y=3.065
Rf632	GNDA#67	GNDA#68	0.441176	$MET1	$W=8.075e-06
+ $X=29.605 $Y=5.725
Rf633	GNDA#16	GNDA#69	0.416667	$MET1	$W=8.075e-06
+ $X=27.79 $Y=3.065
Rf634	GNDA#67	GNDA#70	0.394737	$MET1	$W=8.075e-06
+ $X=21.055 $Y=5.725
Rf635	GNDA#16	GNDA#72	0.416667	$MET1	$W=8.075e-06
+ $X=18.79 $Y=3.065
Rf636	GNDA#67	GNDA#73	0.416667	$MET1	$W=8.075e-06
+ $X=12.2425 $Y=5.725
Rf637	GNDA#16	GNDA#74	0.416667	$MET1	$W=8.075e-06
+ $X=9.79 $Y=3.065
Rf638	GNDA#54	GNDA#76	0.394737	$MET1	$W=3.36e-06
+ $X=37.955 $Y=10
Rf639	GNDA#54	GNDA#77	0.394737	$MET1	$W=3.36e-06
+ $X=37.955 $Y=19.025
Rf640	GNDA#54	GNDA#78	0.394737	$MET1	$W=3.36e-06
+ $X=37.955 $Y=28.06
Rf641	GNDA#54	GNDA#79	1.875000	$MET1	$W=3.36e-06
+ $X=37.955 $Y=33.545
Rf642	GNDA#81	GNDA#82	0.441176	$MET1	$W=3.2e-07
+ $X=37.395 $Y=35.735
Rf643	GNDA#81	GNDA#83	0.416667	$MET1	$W=3.2e-07
+ $X=28.6 $Y=35.735
Rf644	GNDA#81	GNDA#84	0.441176	$MET1	$W=3.2e-07
+ $X=23.85 $Y=39.855
Rf645	GNDA#81	GNDA#85	0.500000	$MET1	$W=3.2e-07
+ $X=23.85 $Y=48.0775
Rf646	GNDA#81	GNDA#86	0.441176	$MET1	$W=3.2e-07
+ $X=28.5075 $Y=51.665
Rf647	GNDA#81	GNDA#87	0.441176	$MET1	$W=3.2e-07
+ $X=37.285 $Y=51.665
Rf648	GNDA#81	GNDA#88	0.500000	$MET1	$W=3.2e-07
+ $X=41.94 $Y=48.06
Rf649	GNDA#81	GNDA#89	0.441176	$MET1	$W=3.2e-07
+ $X=41.94 $Y=39.8375
Rf650	GNDA#67	GNDA#91	0.394737	$MET1	$W=3.36e-06
+ $X=7.7 $Y=10
Rf651	GNDA#67	GNDA#92	0.394737	$MET1	$W=3.36e-06
+ $X=7.7 $Y=19.025
Rf652	GNDA#67	GNDA#93	0.394737	$MET1	$W=3.36e-06
+ $X=7.7 $Y=28.06
Rf653	GNDA#67	GNDA#94	1.875000	$MET1	$W=3.36e-06
+ $X=7.7 $Y=33.545
Rf654	GNDA#67	GNDA#95	0.416667	$MET1	$W=3.36e-06
+ $X=12.2425 $Y=34.265
Rf655	GNDA#67	GNDA#96	0.394737	$MET1	$W=3.36e-06
+ $X=21.055 $Y=34.265
Rf656	GNDA#67	GNDA#97	0.441176	$MET1	$W=3.36e-06
+ $X=29.605 $Y=34.265
Rf657	GNDA#67	GNDA#98	1.875000	$MET1	$W=3.36e-06
+ $X=33.88 $Y=33.545
Rf658	GNDA#67	GNDA#99	0.394737	$MET1	$W=3.36e-06
+ $X=33.88 $Y=28.06
Rf659	GNDA#67	GNDA#100	0.394737	$MET1	$W=3.36e-06
+ $X=33.88 $Y=19.025
Rf660	GNDA#67	GNDA#101	0.394737	$MET1	$W=3.36e-06
+ $X=33.88 $Y=10
Rf661	GNDA#54	GNDA#103	0.394737	$MET1	$W=3.36e-06
+ $X=42.705 $Y=34.265
Rf662	GNDA#54	GNDA#104	0.394737	$MET1	$W=3.36e-06
+ $X=51.73 $Y=34.265
Rf663	GNDA#54	GNDA#105	0.394737	$MET1	$W=3.36e-06
+ $X=60.7325 $Y=34.265
Rf664	GNDA#54	GNDA#106	0.394737	$MET1	$W=3.36e-06
+ $X=69.685 $Y=34.265
Rf665	GNDA#54	GNDA#108	0.441176	$MET1	$W=3.36e-06
+ $X=78.145 $Y=34.265
Rf666	GNDA#54	GNDA#109	1.875000	$MET1	$W=3.36e-06
+ $X=82.375 $Y=33.545
Rf667	GNDA#54	GNDA#110	0.394737	$MET1	$W=3.36e-06
+ $X=82.375 $Y=28.06
Rf668	GNDA#54	GNDA#111	0.394737	$MET1	$W=3.36e-06
+ $X=82.375 $Y=19.025
Rf669	GNDA#54	GNDA#112	0.394737	$MET1	$W=3.36e-06
+ $X=82.375 $Y=10
Rf703	net13#5	net13#29	0.576923	$MET1	$W=6.292e-07
+ $X=68.995 $Y=25.285
Rf704	net13#9	net13#31	0.394737	$MET1	$W=9.196e-07
+ $X=61.395 $Y=25.285
Rg1	net24	net24#2	17.389328	$POLY1	$W=2.53e-06
+ $X=12.91 $Y=66.322
Rg2	net24#3	net24#4	17.389328	$POLY1	$W=2.53e-06
+ $X=15.95 $Y=66.322
Rg3	net2	net2#2	11.263066	$POLY1	$W=2.87e-06
+ $X=17.6035 $Y=48.645
Rg4	net2#2	net2#3	1.881533	$POLY1	$W=2.87e-06
+ $X=14.435 $Y=48.645
Rg5	net1	net1#2	11.276133	$POLY1	$W=2.87e-06
+ $X=17.6035 $Y=42.515
Rg6	net1#2	net1#3	1.861934	$POLY1	$W=2.87e-06
+ $X=14.4425 $Y=42.515
Rg7	VDD3#1	VDD3#2	15.889328	$POLY1	$W=2.53e-06
+ $X=20.015 $Y=99.383
Rg8	VDD3#3	VDD3#4	15.889328	$POLY1	$W=2.53e-06
+ $X=20.015 $Y=80.023
Rg9	net13	net13#2	27.556759	$POLY1	$W=4.5e-07
+ $X=21.03 $Y=25.285
Rg10	net13#2	net13#3	27.845848	$POLY1	$W=4.5e-07
+ $X=19.27 $Y=22.507
Rg11	net24#5	net24#6	17.389328	$POLY1	$W=2.53e-06
+ $X=23.06 $Y=66.322
Rg12	net17	net17#2	17.389328	$POLY1	$W=2.53e-06
+ $X=23.755 $Y=99.383
Rg13	net17#3	net17#4	17.389328	$POLY1	$W=2.53e-06
+ $X=23.755 $Y=80.023
Rg14	net24#7	net24#8	17.389328	$POLY1	$W=2.53e-06
+ $X=26.1 $Y=66.322
Rg15	net1#4	net1#5	17.389328	$POLY1	$W=2.53e-06
+ $X=26.71 $Y=47.082
Rg16	net17#5	net17#6	17.389328	$POLY1	$W=2.53e-06
+ $X=27.495 $Y=99.383
Rg17	net17#7	net17#8	17.389328	$POLY1	$W=2.53e-06
+ $X=27.495 $Y=80.023
Rg18	net1#6	net1#7	17.389328	$POLY1	$W=2.53e-06
+ $X=29.75 $Y=47.082
Rg19	net17#9	net17#10	17.389328	$POLY1	$W=2.53e-06
+ $X=31.235 $Y=99.383
Rg20	net17#11	net17#12	17.389328	$POLY1	$W=2.53e-06
+ $X=31.235 $Y=80.023
Rg21	net24#9	net24#10	17.389328	$POLY1	$W=2.53e-06
+ $X=33.815 $Y=66.322
Rg22	net17#13	net17#14	17.389328	$POLY1	$W=2.53e-06
+ $X=34.975 $Y=99.383
Rg23	net17#15	net17#16	17.389328	$POLY1	$W=2.53e-06
+ $X=34.975 $Y=80.023
Rg24	net1#8	net1#9	17.389328	$POLY1	$W=2.53e-06
+ $X=36.04 $Y=47.082
Rg25	net24#11	net24#12	17.389328	$POLY1	$W=2.53e-06
+ $X=36.855 $Y=66.322
Rg26	net17#17	net17#18	17.389328	$POLY1	$W=2.53e-06
+ $X=38.715 $Y=99.383
Rg27	VDD3#5	VDD3#6	15.889328	$POLY1	$W=2.53e-06
+ $X=38.715 $Y=80.023
Rg28	net1#10	net1#11	17.389328	$POLY1	$W=2.53e-06
+ $X=39.08 $Y=47.082
Rg29	VDD3#7	VDD3#8	15.889328	$POLY1	$W=2.53e-06
+ $X=42.455 $Y=99.383
Rg30	VDD3#9	VDD3#10	15.889328	$POLY1	$W=2.53e-06
+ $X=42.455 $Y=80.023
Rg31	net24#13	net24#14	17.389328	$POLY1	$W=2.53e-06
+ $X=44.63 $Y=66.322
Rg32	net24#15	net24#16	17.389328	$POLY1	$W=2.53e-06
+ $X=47.67 $Y=66.322
Rg33	net24#17	net24#18	17.389328	$POLY1	$W=2.53e-06
+ $X=55.095 $Y=66.322
Rg34	net25	net25#2	1.023573	$POLY1	$W=4.03e-06
+ $X=64.765 $Y=41.905
Rg35	net13#4	net13#5	32.390091	$POLY1	$W=4.5e-07
+ $X=69.363 $Y=25.285
Rg36	net13#5	net13#6	16.045019	$POLY1	$W=2.53e-06
+ $X=67.765 $Y=22.476
Rg37	net13#5	net13#7	73.844810	$POLY1	$W=4.5e-07
+ $X=66.245 $Y=25.285
Rg38	net13#7	net13#8	15.416519	$POLY1	$W=2.53e-06
+ $X=64.725 $Y=22.476
Rg39	net13#7	net13#9	57.059097	$POLY1	$W=4.5e-07
+ $X=63.205 $Y=25.285
Rg40	net13#9	net13#10	16.045019	$POLY1	$W=2.53e-06
+ $X=61.685 $Y=22.476
Rg41	net13#9	net13#11	46.701958	$POLY1	$W=4.5e-07
+ $X=60.165 $Y=25.285
Rg42	net13#11	net13#12	15.416519	$POLY1	$W=2.53e-06
+ $X=58.645 $Y=22.476
Rg43	net13#11	net13#13	50.118198	$POLY1	$W=4.5e-07
+ $X=57.125 $Y=25.285
Rg44	net13#13	net13#14	15.416519	$POLY1	$W=2.53e-06
+ $X=55.605 $Y=22.476
Rg45	net13#13	net13#15	51.880527	$POLY1	$W=4.5e-07
+ $X=54.085 $Y=25.285
Rg46	net13#15	net13#16	16.045019	$POLY1	$W=2.53e-06
+ $X=52.565 $Y=22.476
Rg47	net13#15	net13#17	54.667278	$POLY1	$W=4.5e-07
+ $X=51.045 $Y=25.285
Rg48	GNDA#1	GNDA#2	1.023573	$POLY1	$W=4.03e-06
+ $X=77.545 $Y=41.905
*
*       CAP/DIODE CARDS
*
*
DD0_unmatched	GNDA	VDD3	p_dnw	4.77568e-10	0.00014131 
+  perimeter=0.00014131  model=dnw
DD1_unmatched	GNDA	VDD3	p_dnw	1.16854e-09	0.00017172 
+  perimeter=0.00017172  model=dnw
DD2_unmatched	GNDA	VDD3	p_dnw	1.52695e-09	0.00019561 
+  perimeter=0.00019561  model=dnw
DX116/D8_unmatched	GNDA	VDD3	p_ddnw	5.2432e-10	0.00011224 
+  perimeter=0.00011224  model=ddnw
DX92/D2_unmatched	GNDA	VDD3	p_ddnw	3.07331e-10	7.576e-05 
+  perimeter=7.576e-05  model=ddnw
DX116/D9_unmatched	net25	VDD3	p_dipdnwmv	1.51486e-10
+ 8.144e-05 	 perimeter=8.144e-05  model=dipdnwmv
DX92/D3_unmatched	GNDA	VDD3	p_dipdnwmv	7.49452e-11
+ 4.496e-05 	 perimeter=4.496e-05  model=dipdnwmv
DX101/D1_unmatched	GNDA	VDD3	p_dnw3	6.65712e-11	0.000e+00 
+  perimeter=0  model=dnw3
DX100/D2_unmatched	GNDA	VDD3	p_dnw3	1.03234e-10	0.000e+00 
+  perimeter=0  model=dnw3
DX99/D2_unmatched	GNDA	VDD3	p_dnw3	1.03234e-10	0.000e+00 
+  perimeter=0  model=dnw3
DX98/D2_unmatched	GNDA	VDD3	p_dnw3	1.03234e-10	0.000e+00 
+  perimeter=0  model=dnw3
DX97/D2_unmatched	GNDA	VDD3	p_dnw3	1.03234e-10	0.000e+00 
+  perimeter=0  model=dnw3
DX94/D1_unmatched	GNDA	net24	p_dnw3	4.57434e-11	3.138e-05 
+  perimeter=3.138e-05  model=dnw3
DX93/D1_unmatched	GNDA	net2	p_dnw3	4.57434e-11	3.138e-05 
+  perimeter=3.138e-05  model=dnw3
DD3_unmatched	GNDA	VDD3	p_dnw3	3.37198e-10	0.000e+00 
+  perimeter=0  model=dnw3
DD4_unmatched	GNDA	VDD3	p_dnw3	3.37198e-10	0.000e+00 
+  perimeter=0  model=dnw3
*
*
*       CAPACITOR CARDS
*
*
C1	net40#16	net47#8	2.2451e-15	$X=50.1835 $Y=111.3375
C2	VDD3#78	VDD3#10	2.5789e-16	$X=41.524 $Y=83.897
C3	net23#6	GNDA#81	4.09128e-16	$X=39.9465 $Y=39.8695
C4	VDD3#27	net17#2	2.57922e-16	$X=22.8205 $Y=103.276
C5	VDD3#26	net17#4	3.32713e-17	$X=22.3065 $Y=88.0455
C6	net30#9	net17#70	8.41198e-17	$X=38.5025 $Y=91.509
C7	net24#82	VDD3#140	1.82404e-17	$X=19.5905 $Y=52.9405
C8	net40#6	VDD3#51	2.07008e-17	$X=28.7035 $Y=100.2695
C9	VDD3#86	net17#74	2.91486e-16	$X=44.226 $Y=108.9295
C10	net13#27	net1#7	3.50983e-16	$X=30.5235 $Y=40.9365
C11	net17#53	net18#12	2.19781e-17	$X=31.562 $Y=77.0975
C12	net25#3	net13#15	5.30036e-17	$X=49.919 $Y=21.73
C13	net30#9	net30#7	3.2253e-16	$X=36.1855 $Y=83.3715
C14	net1#28	net24#87	1.31366e-16	$X=30.655 $Y=41.8215
C15	net1#51	net17#21	1.14012e-16	$X=21.9265 $Y=53.8365
C16	GNDA#115	net13#19	5.06817e-17	$X=20.762 $Y=17.8585
C17	net2#10	net2#12	4.13411e-17	$X=9.4015 $Y=48.456
C18	net25#4	net23#8	4.93496e-17	$X=50.0835 $Y=19.8965
C19	VDD3#106	net30#6	8.95042e-17	$X=22.2375 $Y=109.1475
C20	VDD3#41	net13#3	1.95834e-17	$X=19.888 $Y=18.7825
C21	net23#28	net25#24	1.84598e-16	$X=58.6445 $Y=14.209
C22	net17#29	VDD3#24	2.19781e-17	$X=21.614 $Y=79.956
C23	net47#3	VDD3#8	3.98344e-17	$X=40.8165 $Y=105.5795
C24	net40#6	net17#36	2.01574e-17	$X=27.436 $Y=92.3135
C25	net24#84	net24#6	6.26423e-17	$X=25.119 $Y=59.646
C26	net30#18	VDD3#90	3.99596e-17	$X=48.3165 $Y=92.391
C27	VDD3#106	VDD3#186	1.24138e-16	$X=14.4405 $Y=108.354
C28	net47#6	OUT3#3	3.24229e-16	$X=57.5585 $Y=65.948
C29	VDD3#140	OUT2#3	7.71072e-18	$X=45.973 $Y=60.382
C30	net17#32	OUT1#5	9.25062e-17	$X=31.2255 $Y=58.578
C31	VDD3#87	VDD3#10	3.41197e-16	$X=43.388 $Y=83.916
C32	net23#16	net13#32	2.2216e-16	$X=46.8255 $Y=28.0895
C33	net23#29	net13#17	6.19052e-17	$X=46.696 $Y=16.541
C34	net18#13	VDD3#90	1.72547e-16	$X=18.807 $Y=70.674
C35	net23#27	net13#8	6.15791e-17	$X=63.5735 $Y=15.2675
C36	VDD3#89	VDD3#10	2.63611e-17	$X=43.5665 $Y=88.486
C37	net18#12	net17#49	4.7091e-16	$X=31.813 $Y=91.5665
C38	OUT1#5	VDD3#138	2.23341e-16	$X=47.219 $Y=60.4635
C39	VDD3#76	VDD3#8	2.63808e-17	$X=41.216 $Y=107.5765
C40	net17#29	VDD3#3	1.53905e-16	$X=20.6815 $Y=77.0675
C41	net13#40	net1#28	3.85794e-16	$X=27.552 $Y=36.728
C42	net40#18	net47#3	2.07008e-17	$X=42.5795 $Y=102.922
C43	VDD3#175	VDD3#140	3.19324e-17	$X=59.2395 $Y=72.2475
C44	net13#30	VDD3#114	3.73446e-17	$X=59.8065 $Y=26.248
C45	VDD3#23	net17#2	3.32713e-17	$X=22.3065 $Y=107.4055
C46	net13#19	net13#18	2.31037e-16	$X=20.7895 $Y=19.8885
C47	net25#18	net25#16	2.82556e-16	$X=73.0575 $Y=20.0105
C48	VDD3#5	VDD3#78	9.28965e-16	$X=40.2315 $Y=82.0625
C49	VDD3#90	net17#40	1.38952e-16	$X=27.54 $Y=75.983
C50	VDD3#74	VDD3#8	2.57922e-16	$X=41.5205 $Y=103.276
C51	net18#19	VDD3#198	2.68663e-15	$X=16.2525 $Y=90.0585
C52	net1#28	net13#24	2.87848e-16	$X=26.458 $Y=39.879
C53	GNDA#81	net23#3	7.4242e-17	$X=34.4225 $Y=39.8435
C54	VDD3#33	net17#2	3.98344e-17	$X=25.1335 $Y=103.276
C55	net30#9	net17#36	5.8295e-17	$X=27.662 $Y=92.295
C56	VDD3#129	GNDA#1	4.04934e-17	$X=77.5275 $Y=41.967
C57	VDD3#86	VDD3#8	2.63611e-17	$X=43.5665 $Y=107.846
C58	VDD3#204	VDD3#106	1.36154e-17	$X=13.944 $Y=111.7065
C59	net18#13	VDD3#140	2.68801e-17	$X=18.9295 $Y=69.194
C60	net30#9	VDD3#66	8.99953e-16	$X=36.434 $Y=85.29
C61	net24#43	net24#8	2.17228e-16	$X=25.179 $Y=63.8905
C62	net40#16	net47#3	9.99837e-16	$X=43.928 $Y=111.8705
C63	net25#23	net13#8	4.13773e-17	$X=65.8815 $Y=15.2485
C64	VDD3#62	net17#49	1.71578e-16	$X=32.2415 $Y=90.9495
C65	net23#10	net13#13	4.92795e-17	$X=56.664 $Y=21.1185
C66	net1#19	GNDA#81	5.1266e-17	$X=21.2695 $Y=42.8595
C67	GNDA#10	net13	1.77361e-16	$X=23.204 $Y=19.356
C68	net25#25	net13#16	4.13773e-17	$X=53.715 $Y=15.2675
C69	net40#9	net24#14	3.46719e-16	$X=43.9255 $Y=60.073
C70	net24#84	net24#8	6.04021e-17	$X=26.6225 $Y=59.646
C71	net18#19	VDD3#186	3.53457e-16	$X=16.1895 $Y=101.549
C72	GNDA#67	GNDA#16	3.31753e-16	$X=27.832 $Y=36.0465
C73	VDD3#5	VDD3#9	6.38944e-17	$X=41.3555 $Y=78.438
C74	VDD3#198	VDD3#17	1.79721e-16	$X=17.9285 $Y=84.916
C75	VDD3#41	net13	2.00716e-17	$X=22.454 $Y=18.782
C76	OUT2#5	OUT3#2	6.0999e-18	$X=56.1445 $Y=63.2125
C77	net30#13	VDD3#138	6.89152e-16	$X=48.837 $Y=67.8875
C78	VDD3#68	net17#70	2.38441e-16	$X=38.092 $Y=90.499
C79	net23#20	net13#15	1.01218e-17	$X=55.687 $Y=21.1475
C80	net17#71	net17#53	1.11375e-16	$X=31.34 $Y=75.11
C81	net1#51	net24#34	1.26843e-17	$X=19.397 $Y=48.89
C82	net30#16	VDD3#90	3.2784e-17	$X=48.637 $Y=110.7635
C83	net18#19	net30#9	1.17208e-15	$X=25.412 $Y=90.8415
C84	net40#12	net47#5	2.01285e-17	$X=53.049 $Y=63.078
C85	VDD3#38	net17#36	2.27192e-17	$X=27.2635 $Y=91.923
C86	net24#46	net24#6	2.90974e-17	$X=24.0805 $Y=58.8525
C87	net30#6	net30#4	3.22694e-16	$X=36.1855 $Y=102.7315
C88	net13#19	GNDA#10	7.44105e-17	$X=21.67 $Y=19.9535
C89	net23#10	net13#11	4.92668e-17	$X=57.5845 $Y=21.1185
C90	net18#17	VDD3#186	1.73838e-15	$X=16.0235 $Y=109.159
C91	net2#5	net1#51	2.9927e-17	$X=17.811 $Y=48.7505
C92	net23#29	GNDA#16	2.03475e-16	$X=43.546 $Y=14.281
C93	net23#20	net13#9	1.01218e-17	$X=59.2505 $Y=21.774
C94	net17#25	VDD3#32	1.60948e-17	$X=22.2065 $Y=89.4655
C95	VDD3#140	VDD3#129	1.57361e-16	$X=47.485 $Y=69.962
C96	VDD3#198	VDD3#12	4.19229e-17	$X=17.9285 $Y=99.9295
C97	OUT2#3	net24#14	2.2225e-16	$X=45.664 $Y=61.004
C98	VDD3#138	VDD3#129	4.05346e-16	$X=60.6465 $Y=67.9905
C99	VDD3#187	VDD3#138	1.43262e-17	$X=52.657 $Y=79.9245
C100	net23#18	net25#3	3.28672e-17	$X=49.8625 $Y=19.945
C101	net40#6	net17#57	2.07008e-17	$X=30.914 $Y=100.267
C102	net24#84	net30#3	1.03533e-16	$X=30.256 $Y=57.742
C103	net47#3	VDD3#7	1.2526e-17	$X=41.3705 $Y=102.1275
C104	net2#9	net1#3	3.11518e-16	$X=12.878 $Y=42.112
C105	net18#17	VDD3#204	2.91014e-16	$X=16.4755 $Y=112.563
C106	net30#6	net47#3	8.93825e-17	$X=35.2375 $Y=110.1935
C107	VDD3#113	GNDA#54	7.26413e-16	$X=56.7195 $Y=38.6225
C108	net40#18	VDD3#74	2.07008e-17	$X=42.44 $Y=101.5015
C109	net18#3	net18	3.30575e-16	$X=11.491 $Y=62.5665
C110	OUT3#2	OUT3#1	2.47841e-16	$X=56.602 $Y=63.744
C111	net23#3	net1#9	3.4479e-16	$X=35.056 $Y=40.82
C112	net25#4	net23#18	2.25871e-16	$X=49.5795 $Y=19.8915
C113	net40#6	net18#9	2.07008e-17	$X=28.5235 $Y=99.0685
C114	OUT2#3	net24#16	2.2225e-16	$X=46.6345 $Y=61.004
C115	net23#3	net23	4.41403e-16	$X=34.54 $Y=42.958
C116	net17#29	VDD3#30	2.19396e-17	$X=21.9795 $Y=79.956
C117	net18#13	VDD3#168	1.03482e-15	$X=16.651 $Y=72.54
C118	net13#32	net13#15	4.75838e-16	$X=53.008 $Y=24.604
C119	net1#19	net1	1.05484e-16	$X=20.0205 $Y=42.7025
C120	net24#84	VDD3#140	1.06662e-16	$X=27.367 $Y=57.1235
C121	GNDA#81	VDD3#140	2.84343e-16	$X=33.2885 $Y=48.695
C122	net25#20	net25#22	3.89868e-16	$X=72.3245 $Y=19.297
C123	net40#15	OUT2#3	2.89995e-17	$X=47.3085 $Y=62.078
C124	net25#9	net23#8	4.69546e-17	$X=52.053 $Y=19.8635
C125	net18#17	net30#6	9.64992e-16	$X=23.417 $Y=110.0385
C126	net17#40	VDD3#36	2.19781e-17	$X=27.1035 $Y=77.958
C127	net17#71	net30#3	1.85689e-16	$X=32.4505 $Y=61.777
C128	net24#84	GNDA#81	7.32331e-17	$X=27.7365 $Y=55.6555
C129	VDD3#39	net2#9	9.7272e-17	$X=11.3815 $Y=37.945
C130	net40#6	net17#4	2.57922e-16	$X=24.3555 $Y=86.3
C131	net30#3	net30	4.35794e-16	$X=32.392 $Y=62.388
C132	VDD3#198	net30#9	1.45678e-16	$X=24.9195 $Y=89.2645
C133	net23#28	GNDA#16	9.34845e-17	$X=57.1165 $Y=14.2485
C134	net40#12	net24#16	3.44903e-16	$X=48.7605 $Y=60.7825
C135	net18#6	VDD3#140	1.74907e-17	$X=18.5965 $Y=60.24
C136	net30#6	VDD3#63	8.99953e-16	$X=36.434 $Y=104.65
C137	OUT2#5	VDD3#138	4.08193e-16	$X=53.809 $Y=60.4035
C138	net13#32	net13#9	1.64331e-16	$X=59.033 $Y=24.406
C139	VDD3#17	VDD3#3	1.11509e-16	$X=19.373 $Y=80.349
C140	net24#87	net13#27	2.64126e-16	$X=31.9025 $Y=41.1505
C141	GNDA#6	net13#3	3.11652e-17	$X=17.82 $Y=19.7105
C142	net13#32	net25#6	6.32224e-17	$X=49.904 $Y=22.5425
C143	net13#24	net13#22	4.21544e-16	$X=25.231 $Y=42.9985
C144	net17#71	VDD3#90	2.05169e-16	$X=32.2715 $Y=70.377
C145	GNDA#115	VDD3#41	3.64701e-16	$X=21.0955 $Y=12.971
C146	net13#24	GNDA#67	2.19262e-17	$X=25.2465 $Y=39.473
C147	net18#9	net40#3	8.94031e-17	$X=28.5235 $Y=109.454
C148	net23#16	GNDA#67	5.11046e-16	$X=36.281 $Y=32.399
C149	VDD3#198	VDD3#24	6.1617e-17	$X=20.2805 $Y=84.932
C150	VDD3#62	net18#12	2.98261e-16	$X=33.6335 $Y=89.4555
C151	VDD3#186	VDD3#12	1.37781e-16	$X=17.7295 $Y=104.642
C152	net23#29	VDD3#115	2.60783e-16	$X=44.9915 $Y=14.6225
C153	VDD3#187	VDD3#5	2.49138e-17	$X=41.416 $Y=81.7955
C154	VDD3#140	net30#12	1.82994e-16	$X=38.96 $Y=59.412
C155	VDD3#36	net17#8	2.57922e-16	$X=26.5605 $Y=83.916
C156	VDD3#38	net17#4	1.47708e-17	$X=25.4295 $Y=88.1295
C157	net24#84	net1#51	3.47588e-17	$X=23.79 $Y=52.8095
C158	net23#22	net13#5	1.01218e-17	$X=64.6285 $Y=21.136
C159	net23#18	net23#8	3.33042e-16	$X=51.0445 $Y=19.8635
C160	net1#5	net1#7	9.17446e-17	$X=28.229 $Y=43.1825
C161	GNDA#81	net1#28	3.53028e-17	$X=28.6185 $Y=40.7655
C162	net18#13	VDD3#198	6.0466e-16	$X=17.073 $Y=78.1225
C163	GNDA#6	net13#2	2.2558e-17	$X=18.659 $Y=22.6365
C164	net40#15	net40#12	2.34878e-16	$X=50.488 $Y=62.6045
C165	net24#46	net17#21	5.29592e-16	$X=23.4835 $Y=57.6055
C166	net40#6	VDD3#57	2.07008e-17	$X=31.5365 $Y=100.2695
C167	VDD3#198	VDD3#21	1.3974e-17	$X=20.2805 $Y=99.98
C168	net1#18	GNDA#81	1.34883e-16	$X=22.3755 $Y=44.1475
C169	net18#9	net30#6	2.44718e-15	$X=32.915 $Y=108.976
C170	net40#9	net40#7	4.32205e-16	$X=43.207 $Y=62.388
C171	net25#3	net13#17	1.5308e-16	$X=48.534 $Y=19.622
C172	GNDA#80	GNDA#81	1.71096e-16	$X=40.772 $Y=35.894
C173	GNDA#115	net13	6.90441e-17	$X=21.515 $Y=15.1925
C174	net47#5	net24#18	1.99123e-16	$X=53.7985 $Y=63.549
C175	net2#9	net1	6.1051e-17	$X=16.912 $Y=42.329
C176	net13#15	net13#13	3.42994e-17	$X=54.5555 $Y=23.9855
C177	net25#4	net13#32	6.62679e-17	$X=49.7085 $Y=21.602
C178	VDD3#90	net17#29	4.08765e-16	$X=21.9375 $Y=76.185
C179	net40#3	net17#2	2.57922e-16	$X=24.3555 $Y=105.66
C180	net25#6	net25#3	3.52485e-16	$X=47.614 $Y=20.258
C181	VDD3#204	GNDA#16	8.02469e-16	$X=17.951 $Y=118.858
C182	VDD3#138	VDD3#175	2.25006e-16	$X=59.3565 $Y=72.1215
C183	VDD3#5	VDD3#6	2.57922e-16	$X=38.9985 $Y=81.571
C184	net17#71	VDD3#140	2.50206e-17	$X=32.257 $Y=69.0275
C185	VDD3#176	net18#9	1.47225e-16	$X=40.6835 $Y=108.166
C186	net17#83	VDD3#138	7.03698e-16	$X=52.2335 $Y=73.2695
C187	OUT1#5	net24#10	3.83116e-17	$X=34.9955 $Y=60.666
C188	VDD3#186	net30#6	1.45533e-16	$X=23.147 $Y=108.4885
C189	net25#11	net13#9	4.92668e-17	$X=60.873 $Y=21.774
C190	net17#44	net17#8	2.57922e-16	$X=28.4075 $Y=84.021
C191	net2#9	net1#19	2.11962e-17	$X=18.8185 $Y=42.5475
C192	net24#46	net24#8	5.28952e-17	$X=25.078 $Y=58.8525
C193	net13#32	net13#5	3.31975e-16	$X=60.922 $Y=24.608
C194	net23#27	GNDA#16	9.57965e-17	$X=63.192 $Y=14.2495
C195	net23#18	net25#9	2.42882e-16	$X=52.5645 $Y=19.842
C196	OUT1#5	net30#3	6.46591e-16	$X=33.7835 $Y=57.823
C197	net25#22	net25#18	3.51844e-16	$X=72.4385 $Y=17.4545
C198	net25#24	net23#22	2.78564e-17	$X=61.6065 $Y=16.8815
C199	VDD3#175	VDD3	3.72871e-17	$X=59.3385 $Y=72.2835
C200	net24#34	net2#12	1.52095e-17	$X=10.9015 $Y=48.569
C201	net40#15	net47#5	9.26139e-17	$X=53.3745 $Y=64.1695
C202	net23#28	net13#12	6.15791e-17	$X=57.487 $Y=15.2485
C203	VDD3#35	net17#2	1.47708e-17	$X=25.4295 $Y=107.4895
C204	OUT3#2	net24#18	1.99123e-16	$X=56.39 $Y=63.549
C205	net17#71	VDD3#168	7.10551e-16	$X=27.77 $Y=72.1655
C206	VDD3#78	VDD3#9	8.42497e-17	$X=41.813 $Y=80.349
C207	VDD3#54	net17#8	3.98344e-17	$X=28.8735 $Y=83.916
C208	VDD3#187	VDD3#9	1.62284e-17	$X=43.209 $Y=79.421
C209	net40#15	VDD3#90	2.07447e-17	$X=50.7565 $Y=69.392
C210	net23#16	net13#27	1.89193e-17	$X=32.7585 $Y=37.2385
C211	VDD3#140	net40#12	1.86345e-16	$X=49.3865 $Y=59.214
C212	net25#25	net23#18	4.12454e-17	$X=52.6235 $Y=16.9155
C213	net25#23	net23#22	2.77665e-17	$X=64.802 $Y=16.8815
C214	VDD3#198	VDD3#30	2.23801e-17	$X=20.84 $Y=84.932
C215	net1#9	net1#11	9.17446e-17	$X=37.559 $Y=43.1825
C216	VDD3#114	net13#13	3.31032e-17	$X=55.7335 $Y=26.1925
C217	VDD3#114	VDD3	2.15181e-16	$X=55.7885 $Y=27.1455
C218	VDD3#198	VDD3#3	1.50493e-17	$X=19.3 $Y=79.6655
C219	net13#27	net23#3	4.93727e-17	$X=32.884 $Y=39.531
C220	net23#28	VDD3#115	1.3777e-16	$X=57.2285 $Y=14.348
C221	VDD3#187	VDD3#7	5.67052e-17	$X=44.2135 $Y=96.277
C222	VDD3#33	net17#6	2.57922e-16	$X=26.5605 $Y=103.276
C223	GNDA#16	GNDA#54	7.73179e-16	$X=56.0335 $Y=36.4665
C224	net18#12	net18#10	3.2253e-16	$X=32.94 $Y=83.28
C225	net25#4	VDD3#115	1.99754e-16	$X=48.378 $Y=19.953
C226	net40#15	net24#81	6.13226e-17	$X=54.1295 $Y=70.032
C227	VDD3#138	net24#18	2.00729e-17	$X=56.0805 $Y=63.3575
C228	net25#25	VDD3#115	2.0725e-16	$X=54.263 $Y=14.351
C229	net17#40	net17#44	2.19781e-17	$X=27.869 $Y=77.914
C230	VDD3#186	VDD3#21	4.76373e-17	$X=19.8495 $Y=104.6535
C231	net18#13	net18#6	2.14983e-16	$X=18.0325 $Y=63.62
C232	net23#27	net25#24	1.84558e-16	$X=61.666 $Y=14.2085
C233	GNDA#4	net13#19	2.59048e-16	$X=18.9455 $Y=20.0085
C234	VDD3#115	net13#17	1.79191e-17	$X=50.402 $Y=18.8105
C235	VDD3#198	VDD3#1	1.50493e-17	$X=19.3 $Y=95.77
C236	net24#87	GNDA#81	9.81951e-17	$X=33.0345 $Y=43.345
C237	OUT1#5	net24#12	2.40757e-17	$X=37.2235 $Y=60.666
C238	net13#27	GNDA#67	3.76933e-17	$X=30.973 $Y=39.467
C239	net24#59	net1#9	2.89908e-16	$X=36.901 $Y=41.63
C240	GNDA#4	VDD3#40	6.49867e-17	$X=16.34 $Y=21.1215
C241	VDD3#24	VDD3#30	8.99953e-16	$X=21.8845 $Y=83.9135
C242	net40#6	net17#8	3.98344e-17	$X=26.818 $Y=86.3
C243	net40#12	net47#6	1.43627e-16	$X=51.026 $Y=62.3865
C244	VDD3#140	net17#32	1.82552e-16	$X=28.422 $Y=59.8925
C245	VDD3#168	net2#10	1.43857e-16	$X=8.335 $Y=49.1195
C246	net17#25	VDD3#90	2.20417e-17	$X=21.95 $Y=91.815
C247	net23#8	net13#32	5.84816e-17	$X=51.466 $Y=20.8055
C248	VDD3#12	VDD3#1	1.11509e-16	$X=19.373 $Y=99.709
C249	net23#6	GNDA#54	1.53261e-17	$X=40.526 $Y=39.4695
C250	net1#55	net1	4.27276e-17	$X=19.8825 $Y=41.366
C251	VDD3#112	VDD3	1.45271e-16	$X=54.824 $Y=115.28
C252	net17#71	net17#66	1.44021e-16	$X=35.2295 $Y=74.4785
C253	net13#32	GNDA#54	4.26421e-16	$X=53.5315 $Y=25.29
C254	net25#15	VDD3#115	1.60504e-16	$X=64.5225 $Y=36.8835
C255	VDD3#38	net17#8	3.32713e-17	$X=26.347 $Y=88.1295
C256	net23#18	VDD3#115	2.91375e-17	$X=51.315 $Y=19.8515
C257	net40#3	net47#3	2.73386e-15	$X=30.5765 $Y=110.6255
C258	net23#18	net13#32	8.01649e-17	$X=51.7675 $Y=21.4475
C259	net23#24	net13#7	1.01218e-17	$X=66.7295 $Y=22.037
C260	net24#82	net24#31	1.19979e-16	$X=20.33 $Y=51.9365
C261	net13#32	VDD3#114	2.53407e-16	$X=55.3975 $Y=26.8245
C262	VDD3#73	net17#70	4.5248e-16	$X=39.9185 $Y=90.5475
C263	net24#59	net1#11	2.89908e-16	$X=38.2545 $Y=41.63
C264	VDD3#176	VDD3#7	1.37784e-16	$X=44.54 $Y=101.757
C265	net24#59	net23#6	3.28654e-16	$X=39.229 $Y=39.894
C266	net25#9	net23#10	4.69546e-17	$X=56.1155 $Y=19.8635
C267	net23#3	net24#87	3.00381e-16	$X=33.921 $Y=41.027
C268	net24#34	net2#3	1.82846e-16	$X=15.3325 $Y=47.5095
C269	net47#6	net47#5	2.7714e-16	$X=53.569 $Y=64.16
C270	net17#66	VDD3#5	1.53873e-16	$X=37.145 $Y=77.116
C271	VDD3#129	GNDA#16	7.34449e-16	$X=68.6625 $Y=81.7355
C272	net40#18	VDD3#90	7.86866e-17	$X=47.998 $Y=93.876
C273	net23#12	net13#9	4.92795e-17	$X=62.744 $Y=21.1185
C274	VDD3#51	net17#6	3.98344e-17	$X=28.8735 $Y=103.276
C275	net24#84	net18#6	1.94387e-16	$X=22.739 $Y=58.482
C276	VDD3#5	VDD3#10	3.98344e-17	$X=40.732 $Y=81.571
C277	net25#4	net13#17	9.63623e-17	$X=48.4075 $Y=19.615
C278	net2#5	net24#32	2.25911e-17	$X=18.5925 $Y=48.449
C279	GNDA#6	GNDA#3	3.4109e-16	$X=17.3595 $Y=20.258
C280	net18#12	net17#25	2.41408e-16	$X=24.838 $Y=91.153
C281	net23#27	VDD3#115	1.41241e-16	$X=63.167 $Y=14.351
C282	net25#15	VDD3#129	4.56394e-16	$X=64.961 $Y=39.5465
C283	net1#16	net1#3	5.78575e-16	$X=14.575 $Y=41.64
C284	net25#23	net13#6	4.13773e-17	$X=66.607 $Y=15.2485
C285	net24#2	net24#4	9.17446e-17	$X=14.4295 $Y=62.4225
C286	net17#32	net24#8	3.44903e-16	$X=27.0485 $Y=61.21
C287	net18#12	VDD3#60	8.99953e-16	$X=33.766 $Y=85.094
C288	net40#3	net17#6	3.98344e-17	$X=26.818 $Y=105.66
C289	net25#25	net13#14	4.13773e-17	$X=54.4535 $Y=15.2675
C290	VDD3#186	VDD3#27	1.72975e-17	$X=20.3535 $Y=104.6535
C291	net23#8	net13#17	1.4672e-16	$X=50.827 $Y=19.7065
C292	OUT1#5	GNDA#81	1.16406e-16	$X=36.9345 $Y=53.1045
C293	net25#24	VDD3#115	2.03004e-16	$X=60.198 $Y=14.348
C294	net25#9	net13#32	1.36015e-16	$X=53.911 $Y=21.4475
C295	net2#5	net2#3	5.75837e-16	$X=14.6905 $Y=47.7955
C296	net23#29	GNDA#67	1.56033e-16	$X=43.3885 $Y=14.1965
C297	VDD3#115	net13#16	1.79191e-17	$X=53.201 $Y=18.6815
C298	net47#6	net24#81	1.71119e-16	$X=54.306 $Y=70.147
[...]
C1185	net24#22	VDD3	1.5779e-16	$X=12.758 $Y=70.251
C1186	net24#43	net24#7	6.86669e-17	$X=25.649 $Y=67.117
C1187	net17#44	net17#11	1.2526e-17	$X=30.266 $Y=80.3635
C1188	net24#32	net2	1.17745e-16	$X=20.387 $Y=48.7275
C1189	VDD3#63	net17#17	8.1086e-17	$X=37.989 $Y=99.8155
C1190	net1#23	net13#24	1.82287e-17	$X=26.289 $Y=47.7585
C1191	net1#55	net2	4.25606e-17	$X=20.3285 $Y=40.93
C1192	GNDA#115	GNDA	2.34356e-16	$X=20.682 $Y=11.631
C1193	net1#14	net18#3	5.77415e-16	$X=12.3305 $Y=58.7905
C1194	VDD3#36	net17#7	8.1086e-17	$X=26.8175 $Y=80.3785
C1195	net40#15	net24#75	1.28821e-16	$X=48.4135 $Y=70.0025
C1196	net24#22	VDD3#168	2.40042e-16	$X=12.7365 $Y=70.674
C1197	net40#6	net17#7	1.2526e-17	$X=27.086 $Y=80.268
C1198	net17#32	net24#7	1.0714e-16	$X=26.9125 $Y=66.217
C1199	net1#19	net2	8.07392e-17	$X=20.4745 $Y=43.0965
C1200	net1#14	net24	6.83781e-17	$X=13.911 $Y=60.7295
C1201	net24#13	VDD3#140	1.30312e-17	$X=44.466 $Y=68.742
C1202	net18#12	net17#15	1.2526e-17	$X=34.943 $Y=79.7265
C1203	net24#81	net24#17	3.73472e-17	$X=54.5135 $Y=69.893
C1204	net24#22	net24	1.31532e-16	$X=12.8005 $Y=69.8295
C1205	VDD3#66	net17#15	1.2526e-17	$X=35.974 $Y=80.3785
C1206	net24#15	net24#13	8.55029e-17	$X=46.1495 $Y=68.835
C1207	net24#63	net30#12	2.06405e-17	$X=37.4995 $Y=68.3045
C1208	GNDA	GNDA#16	2.54031e-14	$X=45.4095 $Y=72.593
C1209	net24#54	net24#9	1.31509e-16	$X=33.616 $Y=69.7945
C1210	GNDA#54	GNDA	1.29634e-14	$X=58.822 $Y=26.326
C1211	net30#9	net17	2.86486e-17	$X=25.8225 $Y=95.261
C1212	net18#6	net24#3	1.07183e-16	$X=16.6285 $Y=66.0175
C1213	net24#17	VDD3	2.7882e-16	$X=55.0915 $Y=68.83
C1214	GNDA#81	GNDA	7.73131e-16	$X=32.9435 $Y=44.6675
C1215	net30#13	net24#69	2.71504e-16	$X=44.1855 $Y=70.057
C1216	net24#15	VDD3	2.36533e-16	$X=47.669 $Y=68.833
C1217	net24#38	net24#5	4.19188e-17	$X=24.4685 $Y=69.029
C1218	net13#19	net13#21	5.261e-17	$X=20.6155 $Y=21.7285
C1219	net24#5	net24#47	1.11304e-16	$X=22.783 $Y=69.7355
C1220	net24#13	VDD3	2.30087e-16	$X=44.63 $Y=68.833
C1221	net18#3	net24	1.07183e-16	$X=12.0465 $Y=60.4755
C1222	net17#44	net17#7	8.1086e-17	$X=28.15 $Y=80.3635
C1223	net30#13	net24#11	2.97965e-17	$X=38.032 $Y=68.745
C1224	net40#6	net17#9	2.3353e-16	$X=29.9605 $Y=95.343
C1225	OUT1#3	net24#11	6.83781e-17	$X=36.069 $Y=64.446
C1226	net2#10	net24	7.66521e-18	$X=8.7055 $Y=49.2595
C1227	GNDA#67	GNDA	1.52342e-14	$X=22.277 $Y=23.152
C1228	VDD3#168	net24#47	2.08267e-16	$X=22.397 $Y=70.713
C1229	net24#43	net24#5	6.86669e-17	$X=23.4865 $Y=67.166
C1230	net18#9	net17#9	1.2526e-17	$X=31.387 $Y=98.9845
C1231	net17#17	VDD3	3.63027e-16	$X=38.717 $Y=96.6085
C1232	net24#54	VDD3#168	2.17171e-16	$X=32.6745 $Y=70.728
C1233	net24#11	VDD3	2.29858e-16	$X=36.857 $Y=68.833
C1234	net30#6	net17#17	1.2526e-17	$X=37.6705 $Y=99.322
C1235	VDD3#140	net24#9	1.20631e-17	$X=33.8265 $Y=68.742
C1236	net24#54	net30#3	2.06405e-17	$X=33.294 $Y=67.327
C1237	OUT2#3	net24#15	6.83781e-17	$X=46.884 $Y=64.446
C1238	VDD3#57	net17#13	8.1086e-17	$X=34.261 $Y=99.762
C1239	net24#75	VDD3#140	1.55284e-16	$X=47.869 $Y=70.1955
C1240	net17#13	VDD3	3.6467e-16	$X=34.978 $Y=96.6085
C1241	net18#6	net1#14	5.81049e-16	$X=16.8705 $Y=59.1805
C1242	net17#15	VDD3	2.47646e-16	$X=34.978 $Y=77.503
C1243	net23#3	net1#8	1.07183e-16	$X=35.318 $Y=44.804
C1244	net1#32	GNDA#81	1.98052e-16	$X=30.025 $Y=50.435
C1245	net24#9	VDD3	2.2542e-16	$X=33.818 $Y=68.833
C1246	net1#10	net1#8	8.55029e-17	$X=37.5595 $Y=49.566
C1247	net1#32	net13#27	1.82287e-17	$X=30.2195 $Y=47.78
C1248	net24#38	net24#41	2.68204e-17	$X=24.7725 $Y=69.1755
C1249	net17#9	VDD3	3.66016e-16	$X=31.2395 $Y=96.6085
C1250	net17#55	net30#6	8.97328e-17	$X=32.365 $Y=109.9405
C1251	VDD3#1	net17	3.70909e-17	$X=21.6435 $Y=96.968
C1252	GNDA#6	GNDA	2.86114e-17	$X=16.8915 $Y=20.4375
C1253	net30#9	net17#13	4.12496e-17	$X=34.728 $Y=95.261
C1254	net17#40	net17#7	1.10957e-16	$X=27.4945 $Y=76.3675
C1255	net17#11	VDD3	2.47932e-16	$X=31.239 $Y=77.503
C1256	GNDA#80	GNDA	1.81084e-16	$X=40.9145 $Y=35.7345
C1257	net24#17	VDD3#140	3.18501e-17	$X=54.7475 $Y=68.7355
C1258	net17#11	net17#7	3.57934e-17	$X=29.3645 $Y=77.5075
C1259	VDD3#106	net17#55	7.26259e-17	$X=22.73 $Y=109.693
C1260	net17#5	VDD3	3.56391e-16	$X=27.5005 $Y=96.6085
C1261	net17#55	net47#3	8.36701e-17	$X=33.492 $Y=110.6275
C1262	net17#7	VDD3	2.47932e-16	$X=27.5 $Y=77.503
C1263	net24#41	net17#32	2.06405e-17	$X=26.6895 $Y=68.5015
C1264	net40#15	net24#15	1.30329e-17	$X=48.5395 $Y=68.7065
C1265	net24#75	VDD3#138	1.51274e-16	$X=48.676 $Y=70.06
C1266	VDD3#57	net17#9	1.2526e-17	$X=32.2875 $Y=99.762
C1267	OUT1#5	net1#38	3.84744e-17	$X=36.0085 $Y=50.959
C1268	VDD3#168	net24#41	2.15913e-16	$X=25.8275 $Y=70.728
C1269	net24#7	VDD3	2.27943e-16	$X=26.4215 $Y=68.7435
C1270	net24#7	net24#41	1.11257e-16	$X=26.399 $Y=69.742
C1271	GNDA#81	net1#23	1.90091e-16	$X=26.784 $Y=50.447
C1272	net24#59	net1#8	6.83781e-17	$X=36.6305 $Y=46.0725
C1273	net17	VDD3	3.40521e-16	$X=23.762 $Y=96.6085
C1274	net17#71	net24#63	3.6075e-17	$X=36.503 $Y=70.1345
C1275	net17#3	VDD3	2.47738e-16	$X=23.761 $Y=77.503
C1276	net1#14	VDD3#140	4.41547e-16	$X=15.761 $Y=57.564
C1277	GNDA#10	GNDA	4.90357e-17	$X=24.0385 $Y=20.08
C1278	net24#5	net24#7	4.33894e-17	$X=24.5315 $Y=68.745
C1279	net17#66	net17#15	1.10957e-16	$X=35.559 $Y=76.6405
C1280	net24#5	VDD3	2.33131e-16	$X=22.7485 $Y=68.7435
C1281	net47#3	net17#17	8.1086e-17	$X=38.363 $Y=99.398
C1282	net24#87	net1#32	9.77144e-17	$X=30.601 $Y=49.035
C1283	net24#22	net18#3	2.06405e-17	$X=12.503 $Y=67.6705
C1284	net24#32	net24	4.75448e-17	$X=20.1225 $Y=50.199
C1285	VDD3#24	net17#3	1.2526e-17	$X=22.7545 $Y=80.3785
C1286	net24#75	OUT2#3	1.0284e-17	$X=47.354 $Y=66.8785
C1287	GNDA#81	net1#8	1.9061e-17	$X=35.8675 $Y=49.296
C1288	net47#6	net24#17	2.19524e-17	$X=54.7965 $Y=68.9775
C1289	VDD3#35	net17#55	4.4355e-16	$X=26.9275 $Y=109.1185
C1290	net40#12	net24#15	1.07183e-16	$X=48.393 $Y=65.661
C1291	OUT2#3	net24#13	6.83781e-17	$X=45.4145 $Y=64.446
C1292	net30#13	net24#15	5.66484e-17	$X=46.744 $Y=68.745
C1293	net30#9	net17#5	3.07538e-17	$X=28.791 $Y=95.261
C1294	net18#13	net24#28	1.93938e-16	$X=16.411 $Y=70.171
C1295	net2#9	net2	4.48618e-16	$X=13.421 $Y=42.8095
C1296	VDD3#33	net17#5	8.1086e-17	$X=26.781 $Y=99.762
C1297	net24#3	VDD3	2.30069e-16	$X=15.9585 $Y=68.833
C1298	net1#44	GNDA#81	1.93958e-16	$X=39.0125 $Y=50.454
C1299	net17#3	net17#7	3.57934e-17	$X=25.6245 $Y=77.5075
C1300	GNDA#81	net1#6	1.9061e-17	$X=29.925 $Y=49.296
C1301	net17#15	VDD3#5	3.76457e-17	$X=36.542 $Y=78.254
C1302	net13#21	GNDA#10	8.01751e-17	$X=22.0425 $Y=23.2955
C1303	net1#6	net1#32	2.09799e-16	$X=29.8905 $Y=50.2745
C1304	net24#75	VDD3	1.97587e-16	$X=47.975 $Y=70.251
C1305	net24#11	net24#63	1.31532e-16	$X=37.054 $Y=69.7935
C1306	VDD3#138	net24#17	3.68314e-17	$X=55.664 $Y=68.6125
C1307	VDD3#30	net17#3	8.1086e-17	$X=23.0775 $Y=80.3785
C1308	GNDA#81	net1#4	6.85926e-17	$X=27.0525 $Y=49.296
C1309	net1#14	net1#12	4.70057e-16	$X=14.4255 $Y=63.008
C1310	net24#69	VDD3	1.99781e-16	$X=44.333 $Y=70.251
C1311	net30#9	net17#15	8.1086e-17	$X=34.7465 $Y=79.8975
C1312	net24#84	net1#6	3.19382e-17	$X=28.8735 $Y=52.0325
C1313	net25#22	net25	2.27655e-16	$X=71.6785 $Y=15.396
C1314	VDD3#54	net17#11	8.1086e-17	$X=30.5575 $Y=80.3785
C1315	net13#21	GNDA#6	1.77425e-17	$X=18.2875 $Y=22.9295
C1316	net40#3	net17	8.1086e-17	$X=24.1465 $Y=99.654
C1317	net24#54	OUT1#3	1.03202e-17	$X=34.1335 $Y=66.906
C1318	net2#12	net24	8.51522e-17	$X=10.0605 $Y=49.6455
C1319	net24#47	net17#21	2.06405e-17	$X=22.573 $Y=67.399
C1320	VDD3#63	net17#13	1.2526e-17	$X=36.0275 $Y=99.762
C1321	net24#3	net24#28	1.31509e-16	$X=16.123 $Y=69.8045
C1322	net24#69	VDD3#140	1.53217e-16	$X=44.256 $Y=70.196
C1323	net30#3	OUT1#3	8.09547e-18	$X=34.2655 $Y=59.5635
C1324	net18#12	VDD3#38	3.79548e-18	$X=27.1425 $Y=89.4555
C1325	net18#9	VDD3#86	3.79548e-18	$X=42.746 $Y=108.829
C1326	net18#9	VDD3#76	3.79548e-18	$X=39.804 $Y=108.82
C1327	net18#9	VDD3#65	3.79548e-18	$X=36.534 $Y=108.817
C1328	net18#9	VDD3#35	3.79548e-18	$X=26.7415 $Y=108.817
C1329	net18#9	VDD3#29	3.79548e-18	$X=22.3955 $Y=108.694
C1330	VDD3#140	net24#7	8.34626e-18	$X=26.5395 $Y=68.6595
C1331	net24#5	VDD3#140	8.34706e-18	$X=22.913 $Y=68.664
C1332	net24#38	VDD3#140	9.74075e-18	$X=24.5885 $Y=69.0415
C1333	net1#23	net1#32	8.31522e-18	$X=28.2235 $Y=50.58
C1334	net1#32	net1#28	9.08237e-18	$X=29.5915 $Y=48.4865
C1335	net1#23	net1#28	9.11435e-18	$X=26.94 $Y=48.6305
C1336	VDD3#41	net13#19	8.8283e-18	$X=20.936 $Y=19.9055
C1337	net24#87	net1#8	5.99138e-18	$X=34.8975 $Y=47.146
C1338	net24#87	net1#6	7.61232e-18	$X=31.0055 $Y=47.146
C1339	net1#44	net24#59	9.08237e-18	$X=38.855 $Y=48.675
C1340	net1#38	net24#59	9.11435e-18	$X=36.2035 $Y=48.4455
C1341	VDD3#115	net23#12	7.30225e-18	$X=63.184 $Y=19.879
C1342	VDD3#115	net23#10	7.30225e-18	$X=57.182 $Y=19.879
C1343	VDD3#115	net23#8	7.30225e-18	$X=51.1805 $Y=19.879
C1344	VDD3#115	net25#13	6.43131e-18	$X=66.1265 $Y=19.8515
C1345	VDD3#115	net25#11	6.43131e-18	$X=60.202 $Y=19.8515
C1346	net24#47	net24#41	8.31522e-18	$X=24.568 $Y=70.252
C1347	net24#22	net24#28	8.31522e-18	$X=14.399 $Y=70.252
C1348	net13#32	net23#11	4.14954e-18	$X=60.78 $Y=21.225
C1349	net13#30	net23#14	4.54198e-18	$X=66.797 $Y=22.4895
C1350	net13#30	net23#11	4.60247e-18	$X=63.7655 $Y=23.119
C1351	net23#24	net13#32	4.83314e-18	$X=63.3015 $Y=21.7255
C1352	net23#22	net13#32	4.84097e-18	$X=60.3405 $Y=21.4475
C1353	net13#30	net23#12	5.88396e-18	$X=63.6565 $Y=22.4895
C1354	net13#32	net23#9	8.75201e-18	$X=56.2185 $Y=21.225
C1355	net13#32	net23#7	8.75201e-18	$X=51.6565 $Y=21.225
C1356	net13#32	net25#10	4.14954e-18	$X=58.499 $Y=21.225
C1357	net13#30	net25#12	4.60247e-18	$X=64.982 $Y=23.119
C1358	net13#30	net25#10	4.60247e-18	$X=62.5485 $Y=23.119
C1359	net13#32	net25#8	8.75201e-18	$X=53.9375 $Y=21.225
C1360	net23#29	net25#8	2.237e-18	$X=52.048 $Y=18.7655
C1361	net23#29	net25#3	4.04736e-18	$X=46.5825 $Y=18.1945
C1362	net25#22	net23#14	5.05822e-18	$X=69.676 $Y=19.144
C1363	net25#23	net23#12	5.05822e-18	$X=64.2835 $Y=17.8635
C1364	net25#24	net23#10	5.05822e-18	$X=58.2035 $Y=17.8635
C1365	net25#23	net23#14	5.07603e-18	$X=68.205 $Y=17.8635
C1366	net25#24	net23#12	5.07603e-18	$X=62.125 $Y=17.8635
C1367	net25#25	net23#10	5.07603e-18	$X=56.062 $Y=17.8945
C1368	net23#24	net25#15	6.56776e-18	$X=68.04 $Y=24.833
C1369	net25#25	net23#8	7.72982e-18	$X=52.1065 $Y=17.8945
C1370	OUT1	GNDA	2.90583e-16	$X=71.47 $Y=52.5815
C1371	OUT2	GNDA	1.49329e-16	$X=74.467 $Y=56.9315
C1372	OUT3	GNDA	2.15694e-16	$X=76.714 $Y=63.7615
C1373	VDD3	GNDA	1.34231e-15	$X=46.8395 $Y=59.8745
C1374	net24	GNDA	1.25479e-17	$X=13.367 $Y=64.794
C1375	net25	GNDA	4.22721e-18	$X=63.2015 $Y=30.9335
C1376	net13#4	GNDA	3.63892e-18	$X=70.802 $Y=18.662
C1377	net13#17	GNDA	4.19109e-18	$X=49.524 $Y=18.7015
C1378	net13	GNDA	1.61549e-16	$X=22.312 $Y=18.581
C1379	net13#3	GNDA	1.6033e-16	$X=19.272 $Y=18.5815
C1380	net24#18	GNDA	8.08274e-18	$X=55.0935 $Y=62.4195
C1381	net1#11	GNDA	1.57582e-16	$X=39.08 $Y=43.1815
C1382	net1#9	GNDA	1.57276e-16	$X=36.0405 $Y=43.1815
C1383	net1#7	GNDA	1.55183e-16	$X=29.751 $Y=43.1815
C1384	net1#5	GNDA	1.60647e-16	$X=26.7115 $Y=43.1815
C1385	net23#24	GNDA	7.45392e-18	$X=69.283 $Y=19.555
C1386	net23#22	GNDA	1.03794e-18	$X=63.2035 $Y=19.8425
C1387	net23#20	GNDA	1.03794e-18	$X=57.124 $Y=19.8425
C1388	OUT3#3	GNDA	9.0735e-17	$X=59.987 $Y=63.7505
C1389	net47#6	GNDA	7.07815e-17	$X=53.498 $Y=69.6045
C1390	net40#18	GNDA	1.06589e-18	$X=48.8955 $Y=93.8395
C1391	net40#15	GNDA	3.7426e-17	$X=51.4435 $Y=68.2735
C1392	net23#18	GNDA	1.41383e-18	$X=51.044 $Y=19.8425
C1393	net30#16	GNDA	7.32073e-18	$X=49.1855 $Y=111.4425
C1394	net30#18	GNDA	6.268e-18	$X=49.1855 $Y=92.2565
C1395	net17#83	GNDA	8.87149e-17	$X=47.851 $Y=76.853
C1396	VDD3#205	GNDA	2.63523e-15	$X=47.748 $Y=119.2115
C1397	OUT2#5	GNDA	6.81806e-17	$X=50.5955 $Y=56.93
C1398	VDD3#176	GNDA	8.36947e-18	$X=47.8635 $Y=107.8445
C1399	VDD3#187	GNDA	2.22291e-17	$X=47.8635 $Y=88.4735
C1400	net30#13	GNDA	3.58147e-17	$X=42.913 $Y=68.3655
C1401	net23#16	GNDA	3.11178e-16	$X=36.3985 $Y=32.4755
C1402	OUT1#5	GNDA	7.75446e-16	$X=38.2395 $Y=55.8415
C1403	net24#87	GNDA	2.18479e-16	$X=33.0455 $Y=43.219
C1404	net17#71	GNDA	1.20996e-16	$X=32.136 $Y=69.3365
C1405	net24#84	GNDA	1.97636e-16	$X=27.1365 $Y=56.9275
C1406	net18#13	GNDA	1.07796e-16	$X=18.0155 $Y=69.544
C1407	net24#82	GNDA	9.46069e-17	$X=19.445 $Y=52.8405
C1408	VDD3#204	GNDA	1.97259e-15	$X=17.684 $Y=119.2775
C1409	VDD3#186	GNDA	9.55487e-18	$X=15.945 $Y=107.8655
C1410	VDD3#198	GNDA	2.65624e-17	$X=15.9475 $Y=88.4755
C1411	net18#17	GNDA	7.59095e-18	$X=16.115 $Y=110.483
C1412	net18#19	GNDA	1.13864e-17	$X=16.585 $Y=91.6835
C1413	net25#20	GNDA	3.03794e-18	$X=72.3235 $Y=20.2325
C1414	net13#28	GNDA	9.41754e-18	$X=70.727 $Y=25.2845
C1415	net23#14	GNDA	8.63388e-18	$X=69.284 $Y=19.8745
C1416	net13#30	GNDA	2.30127e-18	$X=64.1395 $Y=25.2845
C1417	net25#15	GNDA	5.39859e-16	$X=64.807 $Y=38.5365
C1418	VDD3#138	GNDA	9.62946e-16	$X=59.898 $Y=66.971
C1419	net13#32	GNDA	2.25932e-16	$X=53.496 $Y=25.285
C1420	OUT3#2	GNDA	3.96275e-18	$X=56.614 $Y=63.744
C1421	VDD3#113	GNDA	1.79228e-15	$X=56.68 $Y=38.833
C1422	net24#81	GNDA	5.21332e-18	$X=54.356 $Y=70.18
C1423	net25#9	GNDA	5.12248e-18	$X=54.084 $Y=19.8425
C1424	net47#5	GNDA	1.5276e-17	$X=53.574 $Y=63.744
C1425	net40#12	GNDA	8.08274e-18	$X=49.894 $Y=59.077
C1426	net24#75	GNDA	8.31522e-18	$X=47.9755 $Y=70.251
C1427	net25#4	GNDA	1.2762e-17	$X=48.0045 $Y=19.946
C1428	OUT2#3	GNDA	1.29439e-18	$X=46.1495 $Y=60.338
C1429	net24#69	GNDA	8.31522e-18	$X=44.333 $Y=70.251
C1430	VDD3#86	GNDA	4.812e-18	$X=43.8135 $Y=108.856
C1431	VDD3#89	GNDA	8.60747e-18	$X=43.8135 $Y=89.4965
C1432	VDD3#76	GNDA	3.54376e-18	$X=40.847 $Y=108.8555
C1433	VDD3#81	GNDA	7.33924e-18	$X=40.9345 $Y=89.3365
C1434	net23#6	GNDA	1.76186e-16	$X=40.441 $Y=39.5305
C1435	net47#3	GNDA	5.08051e-18	$X=36.886 $Y=111.081
C1436	VDD3#73	GNDA	4.99459e-18	$X=40.4095 $Y=89.496
C1437	net1#44	GNDA	1.57695e-16	$X=39.1455 $Y=50.58
C1438	net30#12	GNDA	8.06284e-18	$X=39.122 $Y=59.273
C1439	net24#59	GNDA	2.2635e-16	$X=37.5935 $Y=40.384
C1440	net24#63	GNDA	8.31522e-18	$X=37.15 $Y=70.251
C1441	VDD3#68	GNDA	3.79548e-18	$X=37.107 $Y=89.496
C1442	net1#38	GNDA	1.71147e-16	$X=35.836 $Y=50.58
C1443	net30#6	GNDA	7.99952e-18	$X=33.7845 $Y=109.3765
C1444	net30#9	GNDA	1.1679e-17	$X=33.7845 $Y=90.021
C1445	OUT1#3	GNDA	2.33843e-17	$X=35.335 $Y=60.338
C1446	net17#66	GNDA	2.35386e-18	$X=36.074 $Y=75.876
C1447	net23#3	GNDA	2.01804e-16	$X=34.52 $Y=39.5305
C1448	net24#54	GNDA	8.31522e-18	$X=33.522 $Y=70.251
C1449	net18#12	GNDA	1.51819e-17	$X=34.813 $Y=89.1675
C1450	net13#27	GNDA	2.04202e-16	$X=31.0095 $Y=39.5305
C1451	net1#32	GNDA	1.34455e-16	$X=29.952 $Y=50.58
C1452	net17#42	GNDA	6.92925e-18	$X=28.795 $Y=90.9685
C1453	net1#28	GNDA	2.45455e-16	$X=28.2 $Y=40.384
C1454	net1#23	GNDA	1.67862e-16	$X=26.6425 $Y=50.58
C1455	net24#41	GNDA	1.09084e-18	$X=26.3915 $Y=70.251
C1456	net40#6	GNDA	1.06589e-18	$X=25.519 $Y=90.875
C1457	net13#24	GNDA	1.63485e-16	$X=25.2595 $Y=39.5305
C1458	net24#47	GNDA	1.09084e-18	$X=22.805 $Y=70.251
C1459	net17#29	GNDA	1.17693e-18	$X=21.7085 $Y=75.8755
C1460	net13#21	GNDA	3.75688e-16	$X=20.1815 $Y=26.303
C1461	net1#18	GNDA	1.01152e-16	$X=21.99 $Y=44.128
C1462	VDD3#29	GNDA	1.19911e-18	$X=22.2345 $Y=108.6965
C1463	VDD3#32	GNDA	4.99459e-18	$X=22.2345 $Y=89.3365
C1464	VDD3#23	GNDA	7.33924e-18	$X=21.7975 $Y=108.855
C1465	VDD3#26	GNDA	7.33924e-18	$X=21.7975 $Y=89.496
C1466	net2#5	GNDA	6.65939e-18	$X=14.9605 $Y=47.494
C1467	net1#16	GNDA	1.1321e-17	$X=14.7815 $Y=41.364
C1468	net24#31	GNDA	2.30426e-16	$X=20.7545 $Y=51.503
C1469	VDD3#15	GNDA	8.60747e-18	$X=18.6565 $Y=108.856
C1470	VDD3#20	GNDA	8.60747e-18	$X=18.6565 $Y=89.4965
C1471	net18#6	GNDA	8.56625e-18	$X=18.049 $Y=60.138
C1472	net1#14	GNDA	2.62809e-16	$X=14.403 $Y=57.155
C1473	VDD3#39	GNDA	1.69844e-15	$X=9.4205 $Y=26.414
C1474	VDD3#106	GNDA	1.1606e-15	$X=12.598 $Y=108.9305
C1475	VDD3#168	GNDA	3.0752e-15	$X=12.28 $Y=82.1765
C1476	net18#3	GNDA	3.17473e-18	$X=11.692 $Y=59.2955
C1477	net2#10	GNDA	4.6532e-16	$X=8.1205 $Y=47.3015
C1478	net13#5	GNDA	4.42607e-18	$X=67.7625 $Y=23.9865
C1479	net13#9	GNDA	6.8885e-18	$X=61.6835 $Y=23.986
C1480	net13#15	GNDA	3.04528e-18	$X=52.564 $Y=23.986
C1481	net24#17	GNDA	3.63126e-18	$X=55.094 $Y=68.83
C1482	net24#15	GNDA	1.22069e-18	$X=47.6695 $Y=68.833
C1483	net24#13	GNDA	3.38512e-18	$X=44.6295 $Y=68.833
C1484	VDD3#7	GNDA	6.268e-18	$X=42.9845 $Y=98.896
C1485	VDD3#9	GNDA	9.64173e-18	$X=42.4195 $Y=77.8805
C1486	net1#10	GNDA	1.91745e-16	$X=39.0795 $Y=49.565
C1487	net17#17	GNDA	2.22619e-18	$X=38.715 $Y=96.6165
C1488	VDD3#5	GNDA	9.59258e-18	$X=39.245 $Y=79.5375
C1489	net24#11	GNDA	4.51498e-18	$X=36.855 $Y=68.833
C1490	net1#8	GNDA	2.18257e-16	$X=36.04 $Y=49.565
C1491	net17#15	GNDA	7.86128e-18	$X=34.975 $Y=77.505
C1492	net24#9	GNDA	5.03476e-18	$X=33.815 $Y=68.833
C1493	net17#11	GNDA	7.8577e-18	$X=31.235 $Y=77.505
C1494	net1#6	GNDA	2.18178e-16	$X=29.75 $Y=49.565
C1495	net17#7	GNDA	7.86128e-18	$X=27.4955 $Y=77.505
C1496	net1#4	GNDA	1.92125e-16	$X=26.7105 $Y=49.565
C1497	net24#7	GNDA	1.96012e-18	$X=26.417 $Y=68.7435
C1498	net17	GNDA	1.88137e-18	$X=23.7555 $Y=96.6165
C1499	net17#3	GNDA	9.74265e-18	$X=23.7555 $Y=77.505
C1500	net24#5	GNDA	2.04453e-18	$X=22.7435 $Y=68.7435
C1501	net13#2	GNDA	3.29586e-16	$X=20.7915 $Y=25.285
C1502	VDD3#3	GNDA	9.59616e-18	$X=19.9805 $Y=77.8805
C1503	net24#3	GNDA	2.46837e-18	$X=15.951 $Y=68.833
C1504	net25#16	GNDA	8.29907e-19	$X=73.1835 $Y=19.9945
C1505	net40#10	GNDA	2.39697e-18	$X=49.159 $Y=63.7435
C1506	net25#6	GNDA	2.54343e-21	$X=47.1445 $Y=20.4375
C1507	OUT2#1	GNDA	3.32503e-18	$X=46.1495 $Y=63.7435
C1508	VDD3#82	GNDA	6.07739e-19	$X=43.9445 $Y=101.9575
C1509	net40#7	GNDA	2.44786e-18	$X=43.1395 $Y=63.7435
C1510	VDD3#78	GNDA	1.34944e-18	$X=40.9445 $Y=83.8795
C1511	VDD3#69	GNDA	1.34944e-18	$X=40.2045 $Y=82.598
C1512	VDD3#66	GNDA	6.55265e-19	$X=37.205 $Y=83.9105
C1513	net30#7	GNDA	6.55265e-19	$X=36.4645 $Y=82.598
C1514	VDD3#60	GNDA	6.55265e-19	$X=33.465 $Y=83.9105
C1515	net17#57	GNDA	2.37485e-18	$X=32.7455 $Y=103.4425
C1516	net18#10	GNDA	6.55265e-19	$X=32.7245 $Y=82.598
C1517	net30	GNDA	1.4728e-19	$X=32.3245 $Y=63.7435
C1518	VDD3#54	GNDA	7.10204e-19	$X=29.7255 $Y=83.9105
C1519	net17#44	GNDA	2.02915e-19	$X=29.0055 $Y=84.0835
C1520	net17#30	GNDA	3.12352e-18	$X=27.59 $Y=63.7435
C1521	net24#43	GNDA	5.78663e-18	$X=24.581 $Y=64.8455
C1522	VDD3#27	GNDA	5.08051e-18	$X=22.246 $Y=103.269
C1523	net17#19	GNDA	3.1318e-18	$X=21.57 $Y=63.7435
C1524	net24#32	GNDA	1.10742e-16	$X=20.68 $Y=48.997
C1525	net1#19	GNDA	1.74562e-16	$X=20.8825 $Y=42.799
C1526	VDD3#12	GNDA	5.94022e-19	$X=18.506 $Y=103.238
C1527	VDD3#17	GNDA	1.48617e-18	$X=18.506 $Y=83.8795
C1528	net2#12	GNDA	2.83841e-17	$X=9.8995 $Y=48.904
C1529	VDD3#115	GNDA	1.73985e-17	$X=61.6165 $Y=20.248
C1530	net25#18	GNDA	4.10271e-18	$X=72.529 $Y=20.08
C1531	net23#13	GNDA	8.75201e-18	$X=69.2835 $Y=19.8745
C1532	net25#12	GNDA	8.62354e-18	$X=66.244 $Y=19.8745
C1533	net25#10	GNDA	4.474e-18	$X=60.164 $Y=19.8745
C1534	VDD3#140	GNDA	2.36247e-16	$X=34.617 $Y=63.061
C1535	VDD3#90	GNDA	6.85369e-17	$X=35.5015 $Y=93.9585
C1536	net25#8	GNDA	2.237e-18	$X=54.084 $Y=19.8745
C1537	net23#4	GNDA	2.965e-18	$X=40.5695 $Y=44.504
C1538	net24#57	GNDA	1.93696e-18	$X=37.5595 $Y=44.504
C1539	net23	GNDA	1.31491e-20	$X=34.5495 $Y=44.504
C1540	net13#25	GNDA	7.69814e-19	$X=31.2395 $Y=44.504
C1541	net13#18	GNDA	4.14954e-18	$X=20.79 $Y=19.8745
C1542	net24#34	GNDA	4.25546e-17	$X=16.2045 $Y=46.7935
C1543	net2#9	GNDA	3.95034e-16	$X=12.03 $Y=41.719
C1544	VDD3#40	GNDA	7.16383e-18	$X=15.12 $Y=22.0295
C1545	net24#38	GNDA	1.45626e-17	$X=24.5795 $Y=69.047
C1546	VDD3#112	GNDA	1.04913e-17	$X=54.824 $Y=115.281
C1547	VDD3#114	GNDA	6.85437e-18	$X=55.789 $Y=27.142
C1548	VDD3#175	GNDA	1.01919e-16	$X=59.339 $Y=72.284
C1549	net1#51	GNDA	3.06515e-16	$X=21.9905 $Y=50.59
C1550	net1#55	GNDA	3.92037e-16	$X=20.8025 $Y=40.259
C1551	net13#40	GNDA	3.40542e-16	$X=27.0805 $Y=34.0545
C1552	net25#22	GNDA	3.54968e-18	$X=72.3215 $Y=14.212
C1553	net25#23	GNDA	1.6309e-19	$X=66.2435 $Y=14.2095
C1554	net13#13	GNDA	3.47976e-18	$X=55.604 $Y=23.986
C1555	net23#27	GNDA	4.90866e-18	$X=63.204 $Y=14.2095
C1556	net23#28	GNDA	4.90866e-18	$X=57.124 $Y=14.2095
C1557	net23#29	GNDA	2.49094e-16	$X=43.5425 $Y=14.137
*
*
.ENDS constant_gm
*
