*
*
*
*                       LINUX           Mon Aug 26 08:13:36 2024
*
*
*
*  PROGRAM  advgen
*
*  Name           : advgen - Quantus - (64-bit)
*  Version        : 23.1.1-p051
*  Build Date     : Thu Feb 15 21:11:17 PST 2024
*
*  HSPICE LIBRARY
*
* GLOBAL_TEMPERATURE 27
*  OPERATING_TEMPERATURE 27
*  QRC_TECH_DIR /pkg/xfab2/XKIT/xh018/cadence/v9_0/QRC_pvs/v9_0_1/XH018_1143/QRC-Typ 
*
*!LENGTH_UNITS METERS
*
*
*
*
*       SUBCIRCUIT DEFINITIONS
*
.SUBCKT NE3I_6 D G S B NW SB
.ENDS
*

*
.SUBCKT constant_gm GNDA OUT1 OUT2 OUT3 VDD3
*
*
*  caps2d version: 10
*
*       SUBCIRCUIT CALLS
*
XXM2@2 net23#11 net13#9 net25#3 net25 VDD3 GNDA NE3I_6	L=2.5e-06	W=1e-05
+ AD=2.7e-12	AS=4.8e-12	PD=1.054e-05	PS=2.096e-05
+ NRD=0.0173	NRS=0.0173
XXM2 net23#11 net13#17 net25#10 net25 VDD3 GNDA NE3I_6	L=2.5e-06	W=1e-05
+ AD=2.7e-12	AS=2.7e-12	PD=1.054e-05	PS=1.054e-05
+ NRD=0.0173	NRS=0.0173
XXM2@7 net23#15 net13#19 net25#10 net25 VDD3 GNDA NE3I_6	L=2.5e-06	W=1e-05
+ AD=2.7e-12	AS=2.7e-12	PD=1.054e-05	PS=1.054e-05
+ NRD=0.0173	NRS=0.0173
XXM2@1 net23#15 net13#21 net25#14 net25 VDD3 GNDA NE3I_6	L=2.5e-06
+ W=1e-05
+ AD=2.7e-12	AS=2.7e-12	PD=1.054e-05	PS=1.054e-05
+ NRD=0.0173	NRS=0.0173
XXM2@5 net23#19 net13#23 net25#14 net25 VDD3 GNDA NE3I_6	L=2.5e-06	W=1e-05
+ AD=2.7e-12	AS=2.7e-12	PD=1.054e-05	PS=1.054e-05
+ NRD=0.0173	NRS=0.0173
XXM2@6 net23#19 net13#25 net25#18 net25 VDD3 GNDA NE3I_6	L=2.5e-06
+ W=1e-05
+ AD=2.7e-12	AS=2.7e-12	PD=1.054e-05	PS=1.054e-05
+ NRD=0.0173	NRS=0.0173
XXM2@4 net23#23 net13#27 net25#18 net25 VDD3 GNDA NE3I_6	L=2.5e-06	W=1e-05
+ AD=2.7e-12	AS=2.7e-12	PD=1.054e-05	PS=1.054e-05
+ NRD=0.0173	NRS=0.0173
XXM2@3 net23#23 net13#30 net25#31 net25 VDD3 GNDA NE3I_6	L=2.5e-06
+ W=1e-05
+ AD=2.7e-12	AS=4.8e-12	PD=1.054e-05	PS=2.096e-05
+ NRD=0.0173	NRS=0.0173
XXM4 net13#32 net13#2 GNDA#3 GNDA VDD3 GNDA NE3I_6	L=2.5e-06	W=1e-05
+ AD=2.7e-12	AS=4.8e-12	PD=1.054e-05	PS=2.096e-05
+ NRD=0.0173	NRS=0.0173
XXM4@1 net13#32 net13#6 GNDA#13 GNDA VDD3 GNDA NE3I_6	L=2.5e-06	W=1e-05
+ AD=2.7e-12	AS=4.8e-12	PD=1.054e-05	PS=2.096e-05
+ NRD=0.0173	NRS=0.0173
*
*       TRANSISTOR CARDS
*
*
MMM0	net24#69	net1#13	net23	GNDA	ne3	L=2.5e-06
+ W=1e-05
+ AD=2.7e-12	AS=4.8e-12	PD=1.054e-05	PS=2.096e-05
+ NRD=0.0173	NRS=0.0173
MMM0@1	net24#69	net1#16	net23#6	GNDA	ne3
+ L=2.5e-06	W=1e-05
+ AD=2.7e-12	AS=4.8e-12	PD=1.054e-05	PS=2.096e-05
+ NRD=0.0173	NRS=0.0173
MMM1	net1#35	net1#7	net13#40	GNDA	ne3	L=2.5e-06
+ W=1e-05
+ AD=2.7e-12	AS=4.8e-12	PD=1.054e-05	PS=2.096e-05
+ NRD=0.0173	NRS=0.0173
MMM1@1	net1#35	net1#10	net13#45	GNDA	ne3
+ L=2.5e-06	W=1e-05
+ AD=2.7e-12	AS=4.8e-12	PD=1.054e-05	PS=2.096e-05
+ NRD=0.0173	NRS=0.0173
MMM17@3	VDD3#118	VDD3#11	VDD3#106	VDD3	pe3
+ L=2.5e-06	W=1e-05
+ AD=4.8e-12	AS=4.8e-12	PD=2.096e-05	PS=2.096e-05
+ NRD=0.0173	NRS=0.0173
MMM17	VDD3#125	VDD3#14	VDD3#111	VDD3	pe3
+ L=2.5e-06	W=1e-05
+ AD=4.8e-12	AS=4.8e-12	PD=2.096e-05	PS=2.096e-05
+ NRD=0.0173	NRS=0.0173
MMM16	net47	net17#26	VDD3#89	VDD3	pe3	L=2.5e-06
+ W=1e-05
+ AD=4.8e-12	AS=4.8e-12	PD=2.096e-05	PS=2.096e-05
+ NRD=0.0173	NRS=0.0173
MMM17@2	VDD3#99	VDD3#8	VDD3#94	VDD3	pe3	L=2.5e-06
+ W=1e-05
+ AD=4.8e-12	AS=4.8e-12	PD=2.096e-05	PS=2.096e-05
+ NRD=0.0173	NRS=0.0173
MMM6	net30#6	net17#20	VDD3#79	VDD3	pe3
+ L=2.5e-06	W=1e-05
+ AD=4.8e-12	AS=4.8e-12	PD=2.096e-05	PS=2.096e-05
+ NRD=0.0173	NRS=0.0173
MMM6@1	net30#11	net17#23	VDD3#84	VDD3	pe3
+ L=2.5e-06	W=1e-05
+ AD=4.8e-12	AS=4.8e-12	PD=2.096e-05	PS=2.096e-05
+ NRD=0.0173	NRS=0.0173
MMM12@1	net17#77	net17#14	VDD3#69	VDD3	pe3
+ L=2.5e-06	W=1e-05
+ AD=4.8e-12	AS=4.8e-12	PD=2.096e-05	PS=2.096e-05
+ NRD=0.0173	NRS=0.0173
MMM9	net18#16	net17#17	VDD3#74	VDD3	pe3
+ L=2.5e-06	W=1e-05
+ AD=4.8e-12	AS=4.8e-12	PD=2.096e-05	PS=2.096e-05
+ NRD=0.0173	NRS=0.0173
MMM9@1	net18#11	net17#8	VDD3#52	VDD3	pe3
+ L=2.5e-06	W=1e-05
+ AD=4.8e-12	AS=4.8e-12	PD=2.096e-05	PS=2.096e-05
+ NRD=0.0173	NRS=0.0173
MMM12	net17#61	net17#11	VDD3#57	VDD3	pe3
+ L=2.5e-06	W=1e-05
+ AD=4.8e-12	AS=4.8e-12	PD=2.096e-05	PS=2.096e-05
+ NRD=0.0173	NRS=0.0173
MMM13	net40	net17#2	VDD3#42	VDD3	pe3	L=2.5e-06
+ W=1e-05
+ AD=4.8e-12	AS=4.8e-12	PD=2.096e-05	PS=2.096e-05
+ NRD=0.0173	NRS=0.0173
MMM13@1	net40#6	net17#5	VDD3#47	VDD3	pe3
+ L=2.5e-06	W=1e-05
+ AD=4.8e-12	AS=4.8e-12	PD=2.096e-05	PS=2.096e-05
+ NRD=0.0173	NRS=0.0173
MMM17@1	VDD3#32	VDD3#2	VDD3#18	VDD3	pe3	L=2.5e-06
+ W=1e-05
+ AD=4.8e-12	AS=4.8e-12	PD=2.096e-05	PS=2.096e-05
+ NRD=0.0173	NRS=0.0173
MMM17@4	VDD3#37	VDD3#5	VDD3#25	VDD3	pe3	L=2.5e-06
+ W=1e-05
+ AD=4.8e-12	AS=4.8e-12	PD=2.096e-05	PS=2.096e-05
+ NRD=0.0173	NRS=0.0173
MMM15	OUT3#1	net24#26	net47#6	VDD3	pe3	L=2.5e-06
+ W=1e-05
+ AD=4.8e-12	AS=4.8e-12	PD=2.096e-05	PS=2.096e-05
+ NRD=0.0173	NRS=0.0173
MMM11@1	OUT2#1	net24#20	net40#11	VDD3	pe3	L=2.5e-06
+ W=1e-05
+ AD=2.7e-12	AS=4.8e-12	PD=1.054e-05	PS=2.096e-05
+ NRD=0.0173	NRS=0.0173
MMM11	OUT2#1	net24#23	net40#16	VDD3	pe3	L=2.5e-06
+ W=1e-05
+ AD=2.7e-12	AS=4.8e-12	PD=1.054e-05	PS=2.096e-05
+ NRD=0.0173	NRS=0.0173
MMM7@1	OUT1#1	net24#14	net30	VDD3	pe3	L=2.5e-06	W=1e-05
+ AD=2.7e-12	AS=4.8e-12	PD=1.054e-05	PS=2.096e-05
+ NRD=0.0173	NRS=0.0173
MMM7	OUT1#1	net24#17	net30#16	VDD3	pe3	L=2.5e-06
+ W=1e-05
+ AD=2.7e-12	AS=4.8e-12	PD=1.054e-05	PS=2.096e-05
+ NRD=0.0173	NRS=0.0173
MMM3@1	net24#54	net24#8	net17#28	VDD3	pe3
+ L=2.5e-06	W=1e-05
+ AD=2.7e-12	AS=4.8e-12	PD=1.054e-05	PS=2.096e-05
+ NRD=0.0173	NRS=0.0173
MMM3	net24#54	net24#11	net17#43	VDD3	pe3
+ L=2.5e-06	W=1e-05
+ AD=2.7e-12	AS=4.8e-12	PD=1.054e-05	PS=2.096e-05
+ NRD=0.0173	NRS=0.0173
MMM5@1	net1#18	net24#2	net18	VDD3	pe3	L=2.5e-06
+ W=1e-05
+ AD=2.7e-12	AS=4.8e-12	PD=1.054e-05	PS=2.096e-05
+ NRD=0.0173	NRS=0.0173
MMM5	net1#18	net24#5	net18#6	VDD3	pe3
+ L=2.5e-06	W=1e-05
+ AD=2.7e-12	AS=4.8e-12	PD=1.054e-05	PS=2.096e-05
+ NRD=0.0173	NRS=0.0173
MMM14	net2#18	net2#3	net24#40	net24	pe3	L=1e-05
+ W=2e-06
+ AD=9.6e-13	AS=9.6e-13	PD=4.96e-06	PS=4.96e-06
+ NRD=0.0865	NRS=0.0865
MMM8	net1#27	net1#3	net2#15	net2	pe3	L=1e-05
+ W=2e-06
+ AD=9.6e-13	AS=9.6e-13	PD=4.96e-06	PS=4.96e-06
+ NRD=0.0865	NRS=0.0865
*
*
*       CANONICAL RESISTOR AND CAP/DIODE CARDS
*
RRR3	GNDA#1	net25#1	rpp1k1_3 	L=0.0002878	W=4e-06
+ $SUB=VDD3 
*
*       PARASITIC RESISTOR AND CAP/DIODE CARDS
*
Rd1	VDD3#202	VDD3#168	0.728342	$MET3	$L=1.437e-05
+ $W=1.46e-06	$X=16.225 $Y=82.475
Rd2	VDD3#168	VDD3	0.981260	$MET3	$L=1.936e-05
+ $W=1.46e-06	$X=16.225 $Y=89.66
Rd6	net18#34	net18#36	0.981260	$MET3	$L=1.936e-05
+ $W=1.46e-06	$X=14.445 $Y=111.83
Rd7	net18#36	net18#21	0.973392	$MET3	$L=1.92248e-05
+ $W=1.46e-06	$X=14.445 $Y=92.47
Rd17	net24	net24#126	0.881852	$MET3	$L=1.18603e-05
+ $W=9.6e-07	$X=33.045 $Y=53.005
Rd18	VDD3#207	VDD3#168	0.728342	$MET3	$L=1.437e-05
+ $W=1.46e-06	$X=46.245 $Y=82.475
Rd19	VDD3#168	VDD3	0.981260	$MET3	$L=1.936e-05
+ $W=1.46e-06	$X=46.245 $Y=89.66
Rd23	net17#122	net17#124	0.981260	$MET3	$L=1.936e-05
+ $W=1.46e-06	$X=48.025 $Y=110.55
Rd24	net17#124	net17#125	0.780548	$MET3	$L=1.54e-05
+ $W=1.46e-06	$X=48.025 $Y=91.19
Rd26	net17#125	net17#95	0.918411	$MET3	$L=1.816e-05
+ $W=1.46e-06	$X=38.945 $Y=73.13
Rd29	net30#36	net30#38	0.981260	$MET3	$L=1.936e-05
+ $W=1.46e-06	$X=49.805 $Y=113.11
Rd30	net30#38	net30#21	1.135837	$MET3	$L=2.24298e-05
+ $W=1.46e-06	$X=49.805 $Y=93.75
Rd34	net40#21	net40#38	1.432610	$MET3	$L=2.8265e-05
+ $W=1.46e-06	$X=51.5375 $Y=66.015
Rd35	net40#38	net40#39	0.981260	$MET3	$L=1.936e-05
+ $W=1.46e-06	$X=51.585 $Y=95.03
Rd38	net47#17	net47#19	2.339603	$MET3	$L=4.61598e-05
+ $W=1.46e-06	$X=53.365 $Y=115.67
Rd39	net47#19	net47#6	0.711029	$MET3	$L=5.76525e-06
+ $W=6e-07	$X=53.47 $Y=69.51
Rd40	net47#6	net47#21	0.611733	$MET3	$L=4.96e-06
+ $W=6e-07	$X=53.425 $Y=61.265
Rd41	net23#48	net23#23	1.223467	$MET3	$L=4.96e-06
+ $W=3e-07	$X=69.285 $Y=24.825
Rd42	net23#23	net23#50	1.401302	$MET3	$L=5.73975e-06
+ $W=3e-07	$X=69.285 $Y=17.005
Rd46	net23#50	net23#54	1.180007	$MET3	$L=1.5335e-05
+ $W=9.6e-07	$X=43.3775 $Y=14.135
Rd47	net23#54	net23#27	1.763698	$MET3	$L=2.292e-05
+ $W=9.6e-07	$X=35.71 $Y=14.135
Rd49	net23#50	net23#19	1.329515	$MET3	$L=5.73975e-06
+ $W=3e-07	$X=63.205 $Y=14.135
Rd50	net23#19	net23#58	1.223467	$MET3	$L=4.96e-06
+ $W=3e-07	$X=63.205 $Y=22.355
Rd51	net23#50	net23#15	1.329515	$MET3	$L=5.73975e-06
+ $W=3e-07	$X=57.125 $Y=14.135
Rd52	net23#15	net23#60	1.223467	$MET3	$L=4.96e-06
+ $W=3e-07	$X=57.125 $Y=22.355
Rd53	net23#50	net23#11	1.329515	$MET3	$L=5.73975e-06
+ $W=3e-07	$X=51.045 $Y=14.135
Rd54	net23#11	net23#62	1.223467	$MET3	$L=4.96e-06
+ $W=3e-07	$X=51.045 $Y=22.355
Rd57	OUT2	OUT2#6	1.867486	$MET3	$L=3.8375e-05	$W=1.46e-06
+ $X=64.5725 $Y=56.935
Rd59	OUT3	OUT3#1	1.342414	$MET3	$L=2.649e-05	$W=1.46e-06
+ $X=69.86 $Y=63.765
Rd60	OUT3#1	OUT3#11	1.202282	$MET3	$L=4.96e-06
+ $W=3e-07	$X=56.615 $Y=63.765
Rd61	OUT3#1	OUT3#12	1.200998	$MET3	$L=4.96e-06
+ $W=3e-07	$X=56.615 $Y=63.765
Rd63	OUT1	OUT1#6	2.122926	$MET3	$L=4.19048e-05	$W=1.46e-06
+ $X=62.0925 $Y=52.585
Re10	net2	net2#4	1.223467	$MET2	$L=4.96e-06	$W=3e-07
+ $X=17.635 $Y=47.495
Re11	net2#4	net2#24	1.613219	$MET2	$L=6.54025e-06
+ $W=3e-07	$X=11.8845 $Y=47.495
Re13	GNDA#50	GNDA#13	1.223467	$MET2	$L=4.96e-06
+ $W=3e-07	$X=23.83 $Y=24.825
Re14	GNDA#13	GNDA#52	1.455279	$MET2	$L=5.91975e-06
+ $W=3e-07	$X=23.83 $Y=16.915
Re15	GNDA#52	GNDA	0.714027	$MET2	$L=3.15e-06
+ $W=3e-07	$X=22.255 $Y=13.955
Re16	GNDA	GNDA#54	0.659761	$MET2	$L=2.93e-06
+ $W=3e-07	$X=19.215 $Y=13.955
Re17	GNDA#54	GNDA#3	1.455279	$MET2	$L=5.91975e-06
+ $W=3e-07	$X=17.75 $Y=13.955
Re20	GNDA#3	GNDA#58	1.223467	$MET2	$L=4.96e-06
+ $W=3e-07	$X=17.75 $Y=22.355
Re25	net17#95	net17#97	0.540035	$MET2	$L=1.06547e-05
+ $W=1.46e-06	$X=29.865 $Y=68.705
Re42	net1#58	net1#61	1.011870	$MET2	$L=6.29e-06
+ $W=4.6e-07	$X=32.895 $Y=50.605
Re45	net1#61	net1#64	0.572285	$MET2	$L=2.67e-06
+ $W=3e-07	$X=23.325 $Y=50.605
Re47	net1#64	net1#66	0.588146	$MET2	$L=7.67e-06
+ $W=9.6e-07	$X=18.155 $Y=53.545
Re50	net1#64	net1#69	0.599203	$MET2	$L=7.78025e-06
+ $W=9.6e-07	$X=21.9925 $Y=50.605
Re58	net1#69	net1#4	1.176654	$MET2	$L=9.75025e-06
+ $W=3e-07	$X=17.55 $Y=41.365
Re68	net23#32	net23#11	1.223405	$MET2	$L=4.96e-06
+ $W=3e-07	$X=51.045 $Y=17.395
Re70	net23#11	net23#35	1.223405	$MET2	$L=4.96e-06
+ $W=3e-07	$X=51.045 $Y=22.3545
Re77	net47#10	net47#6	1.223405	$MET2	$L=4.96e-06
+ $W=3e-07	$X=53.575 $Y=61.265
Re79	net47#6	net47#13	1.223405	$MET2	$L=4.96e-06
+ $W=3e-07	$X=53.575 $Y=66.2245
Re80	net47#14	net47#15	2.045792	$MET2	$L=2.654e-05
+ $W=9.6e-07	$X=26.965 $Y=115.67
Re81	net47#15	net47#16	1.012104	$MET2	$L=1.388e-05
+ $W=9.6e-07	$X=46.8 $Y=115.67
Re83	net40#28	net40#30	2.028063	$MET2	$L=2.631e-05
+ $W=9.6e-07	$X=38.43 $Y=114.39
Re84	net40#30	net40#31	0.892625	$MET2	$L=1.158e-05
+ $W=9.6e-07	$X=19.485 $Y=114.39
Re86	net30#28	net30#30	1.025979	$MET2	$L=1.331e-05
+ $W=9.6e-07	$X=43.15 $Y=113.11
Re87	net30#30	net30#31	1.757500	$MET2	$L=2.28e-05
+ $W=9.6e-07	$X=25.095 $Y=113.11
Re88	net18#28	net18#29	1.934792	$MET2	$L=2.51e-05
+ $W=9.6e-07	$X=41.565 $Y=111.83
Re89	net18#29	net18#30	1.123104	$MET2	$L=1.532e-05
+ $W=9.6e-07	$X=21.73 $Y=111.83
Re91	net17#102	net17#104	1.177063	$MET2	$L=1.527e-05
+ $W=9.6e-07	$X=40.39 $Y=110.55
Re92	net17#104	net17#105	1.469208	$MET2	$L=1.906e-05
+ $W=9.6e-07	$X=23.225 $Y=110.55
Re106	net40#32	net40#34	2.028063	$MET2	$L=2.631e-05
+ $W=9.6e-07	$X=38.43 $Y=95.03
Re107	net40#34	net40#35	0.892625	$MET2	$L=1.158e-05
+ $W=9.6e-07	$X=19.485 $Y=95.03
Re109	net30#32	net30#34	1.025979	$MET2	$L=1.331e-05
+ $W=9.6e-07	$X=43.15 $Y=93.75
Re110	net30#34	net30#35	1.757500	$MET2	$L=2.28e-05
+ $W=9.6e-07	$X=25.095 $Y=93.75
Re111	net18#31	net18#32	1.646500	$MET2	$L=2.136e-05
+ $W=9.6e-07	$X=43.435 $Y=92.47
Re112	net18#32	net18#33	1.411396	$MET2	$L=1.906e-05
+ $W=9.6e-07	$X=23.6 $Y=92.47
Re114	net17#106	net17#108	0.717646	$MET2	$L=9.31e-06
+ $W=9.6e-07	$X=43.37 $Y=91.19
Re120	net17#108	net17#114	0.775458	$MET2	$L=1.006e-05
+ $W=9.6e-07	$X=18.725 $Y=91.19
Re135	net17#115	net17#117	1.005937	$MET2	$L=1.305e-05
+ $W=9.6e-07	$X=41.5 $Y=75.79
Re139	net17#117	net17#121	0.775458	$MET2	$L=1.006e-05
+ $W=9.6e-07	$X=18.725 $Y=75.79
Re142	net24#108	net24#111	1.143783	$MET2	$L=7.11e-06
+ $W=4.6e-07	$X=19.505 $Y=70.305
Re144	net24#111	net24#113	1.241109	$MET2	$L=7.715e-06
+ $W=4.6e-07	$X=29.9575 $Y=70.305
Re146	net24#113	net24#115	1.250761	$MET2	$L=7.775e-06
+ $W=4.6e-07	$X=40.7425 $Y=70.305
Re148	net24#115	net24#117	1.194456	$MET2	$L=7.925e-06
+ $W=4.6e-07	$X=51.3825 $Y=70.305
Re149	OUT3#5	OUT3#1	1.223405	$MET2	$L=4.96e-06	$W=3e-07
+ $X=56.615 $Y=61.265
Re151	OUT3#1	OUT3#8	1.223405	$MET2	$L=4.96e-06	$W=3e-07
+ $X=56.615 $Y=66.2245
Re152	net23#36	net23#15	1.223405	$MET2	$L=4.96e-06
+ $W=3e-07	$X=57.125 $Y=17.395
Re154	net23#15	net23#39	1.223405	$MET2	$L=4.96e-06
+ $W=3e-07	$X=57.125 $Y=22.3545
Re162	VDD3	VDD3#141	2.119129	$MET2	$L=3.70252e-05
+ $W=1.28e-06	$X=12.1435 $Y=109.31
Re165	VDD3#141	VDD3#60	2.642205	$MET2	$L=5.217e-05
+ $W=1.46e-06	$X=5.68 $Y=72.285
Re168	VDD3#141	VDD3#147	2.336523	$MET2	$L=4.61377e-05
+ $W=1.46e-06	$X=35.9885 $Y=72.285
Re169	VDD3#147	VDD3#196	1.187543	$MET2	$L=2.32248e-05
+ $W=1.46e-06	$X=59.2085 $Y=72.155
Re171	VDD3#196	VDD3#134	0.998759	$MET2	$L=2.03853e-05
+ $W=1.46e-06	$X=55.79 $Y=48.93
Re175	net23#40	net23#19	1.223405	$MET2	$L=4.96e-06
+ $W=3e-07	$X=63.205 $Y=17.395
Re177	net23#19	net23#43	1.223405	$MET2	$L=4.96e-06
+ $W=3e-07	$X=63.205 $Y=22.3545
Re178	net23#44	net23#23	1.223405	$MET2	$L=4.96e-06
+ $W=3e-07	$X=69.285 $Y=17.395
Re180	net23#23	net23#47	1.223405	$MET2	$L=4.96e-06
+ $W=3e-07	$X=69.285 $Y=22.3545
Re182	net13#56	net13#53	1.634167	$MET2	$L=6.625e-06
+ $W=3e-07	$X=67.4525 $Y=25.285
Re183	net13#53	net13#14	2.614667	$MET2	$L=1.06e-05
+ $W=3e-07	$X=58.84 $Y=25.285
Re184	net13#14	net13#37	7.990273	$MET2	$L=3.275e-05
+ $W=3e-07	$X=37.165 $Y=25.285
Re185	net13#37	net13#61	0.588793	$MET2	$L=2.73e-06
+ $W=3e-07	$X=19.425 $Y=25.285
Re186	net13#37	net13#32	1.305113	$MET2	$L=5.41e-06
+ $W=3e-07	$X=20.79 $Y=25.285
Re187	net13#32	net13#63	1.223467	$MET2	$L=4.96e-06
+ $W=3e-07	$X=20.79 $Y=17.395
Re195	net25	net25#31	1.223467	$MET2	$L=4.96e-06
+ $W=3e-07	$X=72.325 $Y=24.825
Re196	net25#31	net25#37	1.329515	$MET2	$L=5.73975e-06
+ $W=3e-07	$X=72.325 $Y=17.005
Re201	net25#37	net25#3	1.401302	$MET2	$L=5.73975e-06
+ $W=3e-07	$X=48.005 $Y=14.135
Re203	net25#37	net25#44	1.085333	$MET2	$L=1.412e-05
+ $W=9.6e-07	$X=74.035 $Y=14.135
Re204	net25#44	net25#45	0.704542	$MET2	$L=9.18e-06
+ $W=9.6e-07	$X=69.445 $Y=28.255
Re205	net25#45	net25#22	1.016718	$MET2	$L=1.321e-05
+ $W=9.6e-07	$X=64.855 $Y=28.255
Re208	net25#37	net25#18	1.329515	$MET2	$L=5.73975e-06
+ $W=3e-07	$X=66.245 $Y=14.135
Re209	net25#18	net25#50	1.223467	$MET2	$L=4.96e-06
+ $W=3e-07	$X=66.245 $Y=22.355
Re210	net25#37	net25#14	1.329515	$MET2	$L=5.73975e-06
+ $W=3e-07	$X=60.165 $Y=14.135
Re211	net25#14	net25#52	1.223467	$MET2	$L=4.96e-06
+ $W=3e-07	$X=60.165 $Y=22.355
Re212	net25#37	net25#10	1.329515	$MET2	$L=5.73975e-06
+ $W=3e-07	$X=54.085 $Y=14.135
Re213	net25#10	net25#54	1.223467	$MET2	$L=4.96e-06
+ $W=3e-07	$X=54.085 $Y=22.355
Re214	net25#3	net25#55	1.223467	$MET2	$L=4.96e-06
+ $W=3e-07	$X=48.005 $Y=22.355
Rf1	net18#2	net18	1.209742	$MET1	$L=5.6725e-06
+ $W=3.2e-07	$X=11.39 $Y=68.06
Rf2	net18	net18#4	1.325266	$MET1	$L=5.50775e-06
+ $W=3.2e-07	$X=11.39 $Y=60.2785
Rf9	net1#19	net1#18	1.209742	$MET1	$L=5.6725e-06
+ $W=3.2e-07	$X=14.43 $Y=68.06
Rf10	net1#18	net1#21	1.633266	$MET1	$L=6.78775e-06
+ $W=3.2e-07	$X=14.43 $Y=59.6385
Rf17	net18#7	net18#6	1.209742	$MET1	$L=5.6725e-06
+ $W=3.2e-07	$X=17.47 $Y=68.06
Rf18	net18#6	net18#9	1.325266	$MET1	$L=5.50775e-06
+ $W=3.2e-07	$X=17.47 $Y=60.2785
Rf20	GNDA#4	GNDA#3	1.038297	$MET1	$L=4.96e-06	$W=3.2e-07
+ $X=17.75 $Y=22.0325
Rf22	GNDA#3	GNDA#7	0.865450	$MET1	$L=3.64225e-06	$W=3.2e-07
+ $X=17.75 $Y=17.341
Rf24	GNDA#7	GNDA#9	2.328932	$MET1	$L=9.72475e-06	$W=3.2e-07
+ $X=16.89 $Y=15.52
Rf29	net2#9	net2#10	2.708057	$MET1	$L=1.12647e-05
+ $W=3.2e-07	$X=15.042 $Y=40.665
Rf42	VDD3#16	VDD3#19	0.661719	$MET1	$L=2.75e-06
+ $W=3.2e-07	$X=18.495 $Y=109.02
Rf43	VDD3#19	VDD3#18	1.210344	$MET1	$L=5.03e-06
+ $W=3.2e-07	$X=18.495 $Y=106.27
Rf44	VDD3#18	VDD3#21	1.114037	$MET1	$L=4.63975e-06
+ $W=3.2e-07	$X=18.495 $Y=98.92
Rf47	VDD3#23	VDD3#26	0.661719	$MET1	$L=2.75e-06
+ $W=3.2e-07	$X=18.495 $Y=89.66
Rf48	VDD3#26	VDD3#25	1.210344	$MET1	$L=5.03e-06
+ $W=3.2e-07	$X=18.495 $Y=86.91
Rf49	VDD3#25	VDD3#28	1.114037	$MET1	$L=4.63975e-06
+ $W=3.2e-07	$X=18.495 $Y=79.56
Rf53	net24#41	net24#44	2.722233	$MET1	$L=1.13302e-05
+ $W=3.2e-07	$X=15.3 $Y=46.795
Rf57	VDD3#30	VDD3#33	0.661719	$MET1	$L=2.75e-06
+ $W=3.2e-07	$X=21.535 $Y=109.02
Rf58	VDD3#33	VDD3#32	1.210344	$MET1	$L=9.27e-06
+ $W=3.2e-07	$X=21.535 $Y=106.27
Rf60	VDD3#35	VDD3#38	0.661719	$MET1	$L=2.75e-06
+ $W=3.2e-07	$X=21.535 $Y=89.66
Rf61	VDD3#38	VDD3#37	1.210344	$MET1	$L=9.27e-06
+ $W=3.2e-07	$X=21.535 $Y=86.91
Rf62	net17#29	net17#28	1.209742	$MET1	$L=5.6725e-06
+ $W=3.2e-07	$X=21.54 $Y=68.06
Rf63	net17#28	net17#31	1.666954	$MET1	$L=6.92775e-06
+ $W=3.2e-07	$X=21.54 $Y=59.5685
Rf66	VDD3#40	VDD3#43	0.661719	$MET1	$L=2.75e-06
+ $W=3.2e-07	$X=22.235 $Y=109.02
Rf67	VDD3#43	VDD3#42	1.210344	$MET1	$L=9.27e-06
+ $W=3.2e-07	$X=22.235 $Y=106.27
Rf69	VDD3#45	VDD3#48	0.661719	$MET1	$L=2.75e-06
+ $W=3.2e-07	$X=22.235 $Y=89.66
Rf70	VDD3#48	VDD3#47	1.210344	$MET1	$L=9.27e-06
+ $W=3.2e-07	$X=22.235 $Y=86.91
Rf72	net13#36	net13#37	0.656846	$MET1	$L=2.73e-06
+ $W=3.2e-07	$X=19.425 $Y=25.285
Rf74	net13#37	net13#39	0.656846	$MET1	$L=2.73e-06
+ $W=3.2e-07	$X=22.1545 $Y=25.285
Rf75	GNDA#10	GNDA#11	2.328932	$MET1	$L=9.72475e-06
+ $W=3.2e-07	$X=24.69 $Y=25.2445
Rf77	GNDA#11	GNDA#13	0.865450	$MET1	$L=3.64225e-06
+ $W=3.2e-07	$X=23.83 $Y=17.341
Rf79	GNDA#13	GNDA#16	1.038297	$MET1	$L=4.96e-06
+ $W=3.2e-07	$X=23.83 $Y=22.0325
Rf81	net17#33	net17#35	1.299375	$MET1	$L=5.41e-06
+ $W=3.2e-07	$X=23.755 $Y=91.19
Rf88	net13#41	net13#40	1.209742	$MET1	$L=5.6725e-06
+ $W=3.2e-07	$X=25.19 $Y=48.82
Rf89	net13#40	net13#43	1.515360	$MET1	$L=6.29775e-06
+ $W=3.2e-07	$X=25.19 $Y=40.6435
Rf91	net40#2	net40	1.210344	$MET1	$L=9.27e-06
+ $W=3.2e-07	$X=25.275 $Y=106.27
Rf92	net40#2	net40#4	1.845618	$MET1	$L=7.67025e-06
+ $W=3.2e-07	$X=25.275 $Y=106.27
Rf94	net40#7	net40#6	1.210344	$MET1	$L=9.27e-06
+ $W=3.2e-07	$X=25.275 $Y=86.91
Rf95	net40#7	net40#9	1.845618	$MET1	$L=7.67025e-06
+ $W=3.2e-07	$X=25.275 $Y=86.91
Rf98	VDD3#50	VDD3#53	0.661719	$MET1	$L=2.75e-06
+ $W=3.2e-07	$X=25.975 $Y=109.02
Rf99	VDD3#53	VDD3#52	1.210344	$MET1	$L=9.27e-06
+ $W=3.2e-07	$X=25.975 $Y=106.27
Rf101	VDD3#55	VDD3#58	0.661719	$MET1	$L=2.75e-06
+ $W=3.2e-07	$X=25.975 $Y=89.66
Rf102	VDD3#58	VDD3#57	1.210344	$MET1	$L=9.27e-06
+ $W=3.2e-07	$X=25.975 $Y=86.91
Rf104	VDD3#60	VDD3#62	1.660596	$MET1	$L=6.97e-06
+ $W=3.2e-07	$X=15.12 $Y=20.115
Rf105	VDD3#62	VDD3#63	2.723875	$MET1	$L=1.134e-05
+ $W=3.2e-07	$X=20.79 $Y=13.145
Rf106	VDD3#63	VDD3#64	3.291750	$MET1	$L=1.37e-05
+ $W=3.2e-07	$X=26.46 $Y=13.145
Rf107	VDD3#64	VDD3#65	2.723875	$MET1	$L=1.134e-05
+ $W=3.2e-07	$X=20.79 $Y=26.845
Rf108	VDD3#65	VDD3#66	0.668145	$MET1	$L=2.95025e-06
+ $W=3.2e-07	$X=15.1225 $Y=26.845
Rf109	VDD3#66	VDD3#60	0.856002	$MET1	$L=3.77975e-06
+ $W=3.2e-07	$X=15.12 $Y=22.0075
Rf117	net24#47	net24#54	1.209742	$MET1	$L=5.0275e-06
+ $W=3.2e-07	$X=24.58 $Y=68.06
Rf118	net24#54	net24#57	1.358954	$MET1	$L=5.64775e-06
+ $W=3.2e-07	$X=24.58 $Y=60.2085
Rf129	net17#44	net17#43	1.209742	$MET1	$L=5.6725e-06
+ $W=3.2e-07	$X=27.62 $Y=68.06
Rf130	net17#43	net17#46	1.666954	$MET1	$L=6.92775e-06
+ $W=3.2e-07	$X=27.62 $Y=59.5685
Rf132	net1#36	net1#35	1.209742	$MET1	$L=5.6725e-06
+ $W=3.2e-07	$X=28.23 $Y=48.82
Rf133	net1#35	net1#38	1.207360	$MET1	$L=5.01775e-06
+ $W=3.2e-07	$X=28.23 $Y=41.2835
Rf136	net17#48	net17#50	1.299375	$MET1	$L=5.41e-06
+ $W=3.2e-07	$X=27.495 $Y=91.19
Rf143	net18#12	net18#11	1.210344	$MET1	$L=9.27e-06
+ $W=3.2e-07	$X=29.015 $Y=106.27
Rf144	net18#12	net18#14	1.229618	$MET1	$L=5.11025e-06
+ $W=3.2e-07	$X=29.015 $Y=106.27
Rf147	VDD3#67	VDD3#70	0.661719	$MET1	$L=2.75e-06
+ $W=3.2e-07	$X=29.715 $Y=109.02
Rf148	VDD3#70	VDD3#69	1.210344	$MET1	$L=9.27e-06
+ $W=3.2e-07	$X=29.715 $Y=106.27
Rf150	VDD3#72	VDD3#75	0.661719	$MET1	$L=2.75e-06
+ $W=3.2e-07	$X=29.715 $Y=89.66
Rf151	VDD3#75	VDD3#74	1.210344	$MET1	$L=9.27e-06
+ $W=3.2e-07	$X=29.715 $Y=86.91
Rf154	net17#58	net17#62	1.027893	$MET1	$L=4.28e-06
+ $W=3.2e-07	$X=29.015 $Y=91.19
Rf155	net17#62	net17#61	1.210344	$MET1	$L=9.27e-06
+ $W=3.2e-07	$X=29.015 $Y=86.91
Rf161	net13#46	net13#45	1.209742	$MET1	$L=5.6725e-06
+ $W=3.2e-07	$X=31.27 $Y=48.82
Rf162	net13#45	net13#48	1.515360	$MET1	$L=6.29775e-06
+ $W=3.2e-07	$X=31.27 $Y=40.6435
Rf165	net17#64	net17#66	1.299375	$MET1	$L=5.41e-06
+ $W=3.2e-07	$X=31.235 $Y=91.19
Rf172	net30#2	net30	1.209742	$MET1	$L=5.6725e-06
+ $W=3.2e-07	$X=32.295 $Y=68.06
Rf173	net30	net30#4	1.666954	$MET1	$L=6.92775e-06
+ $W=3.2e-07	$X=32.295 $Y=59.5685
Rf175	net18#17	net18#16	1.210344	$MET1	$L=9.27e-06
+ $W=3.2e-07	$X=32.755 $Y=86.91
Rf176	net18#17	net18#19	1.229618	$MET1	$L=5.11025e-06
+ $W=3.2e-07	$X=32.755 $Y=86.91
Rf179	VDD3#77	VDD3#80	0.661719	$MET1	$L=2.75e-06
+ $W=3.2e-07	$X=33.455 $Y=109.02
Rf180	VDD3#80	VDD3#79	1.210344	$MET1	$L=9.27e-06
+ $W=3.2e-07	$X=33.455 $Y=106.27
Rf182	VDD3#82	VDD3#85	0.661719	$MET1	$L=2.75e-06
+ $W=3.2e-07	$X=33.455 $Y=89.66
Rf183	VDD3#85	VDD3#84	1.210344	$MET1	$L=9.27e-06
+ $W=3.2e-07	$X=33.455 $Y=86.91
Rf186	net17#74	net17#78	1.027893	$MET1	$L=4.28e-06
+ $W=3.2e-07	$X=32.755 $Y=110.55
Rf187	net17#78	net17#77	1.210344	$MET1	$L=9.27e-06
+ $W=3.2e-07	$X=32.755 $Y=106.27
Rf188	net23#2	net23	1.209742	$MET1	$L=5.6725e-06
+ $W=3.2e-07	$X=34.52 $Y=48.82
Rf189	net23	net23#4	1.515360	$MET1	$L=6.29775e-06
+ $W=3.2e-07	$X=34.52 $Y=40.6435
Rf196	OUT1#2	OUT1#1	1.209742	$MET1	$L=5.6725e-06	$W=3.2e-07
+ $X=35.335 $Y=68.06
Rf197	OUT1#1	OUT1#4	1.358954	$MET1	$L=5.64775e-06	$W=3.2e-07
+ $X=35.335 $Y=60.2085
Rf200	net17#80	net17#82	1.299375	$MET1	$L=5.41e-06
+ $W=3.2e-07	$X=34.975 $Y=91.19
Rf207	net30#7	net30#6	1.210344	$MET1	$L=9.27e-06
+ $W=3.2e-07	$X=36.495 $Y=106.27
Rf208	net30#7	net30#9	1.537618	$MET1	$L=6.39025e-06
+ $W=3.2e-07	$X=36.495 $Y=106.27
Rf210	net30#12	net30#11	1.210344	$MET1	$L=9.27e-06
+ $W=3.2e-07	$X=36.495 $Y=86.91
Rf211	net30#12	net30#14	1.537618	$MET1	$L=6.39025e-06
+ $W=3.2e-07	$X=36.495 $Y=86.91
Rf219	VDD3#87	VDD3#90	0.661719	$MET1	$L=2.75e-06
+ $W=3.2e-07	$X=37.195 $Y=109.02
Rf220	VDD3#90	VDD3#89	1.210344	$MET1	$L=9.27e-06
+ $W=3.2e-07	$X=37.195 $Y=106.27
Rf222	VDD3#92	VDD3#95	0.661719	$MET1	$L=2.75e-06
+ $W=3.2e-07	$X=37.195 $Y=89.66
Rf223	VDD3#95	VDD3#94	1.210344	$MET1	$L=9.27e-06
+ $W=3.2e-07	$X=37.195 $Y=86.91
Rf224	net24#70	net24#69	1.209742	$MET1	$L=5.6725e-06
+ $W=3.2e-07	$X=37.56 $Y=48.82
Rf225	net24#69	net24#72	1.207360	$MET1	$L=5.01775e-06
+ $W=3.2e-07	$X=37.56 $Y=41.2835
Rf232	net30#17	net30#16	1.209742	$MET1	$L=5.6725e-06
+ $W=3.2e-07	$X=38.375 $Y=68.06
Rf233	net30#16	net30#19	1.666954	$MET1	$L=6.92775e-06
+ $W=3.2e-07	$X=38.375 $Y=59.5685
Rf236	net17#90	net17#92	1.299375	$MET1	$L=5.41e-06
+ $W=3.2e-07	$X=38.715 $Y=91.19
Rf245	VDD3#97	VDD3#100	0.661719	$MET1	$L=2.75e-06
+ $W=3.2e-07	$X=40.235 $Y=89.66
Rf246	VDD3#100	VDD3#99	1.210344	$MET1	$L=5.03e-06
+ $W=3.2e-07	$X=40.235 $Y=86.91
Rf247	VDD3#99	VDD3#102	1.114037	$MET1	$L=4.63975e-06
+ $W=3.2e-07	$X=40.235 $Y=79.56
Rf249	net47#2	net47	1.210344	$MET1	$L=9.27e-06
+ $W=3.2e-07	$X=40.235 $Y=106.27
Rf250	net47#2	net47#4	2.153618	$MET1	$L=8.95025e-06
+ $W=3.2e-07	$X=40.235 $Y=106.27
Rf252	net23#7	net23#6	1.209742	$MET1	$L=5.6725e-06
+ $W=3.2e-07	$X=40.6 $Y=48.82
Rf253	net23#6	net23#9	1.515360	$MET1	$L=6.29775e-06
+ $W=3.2e-07	$X=40.6 $Y=40.6435
Rf256	VDD3#104	VDD3#107	0.661719	$MET1	$L=2.75e-06
+ $W=3.2e-07	$X=40.935 $Y=109.02
Rf257	VDD3#107	VDD3#106	1.210344	$MET1	$L=9.27e-06
+ $W=3.2e-07	$X=40.935 $Y=106.27
Rf258	net40#12	net40#11	1.209742	$MET1	$L=5.6725e-06
+ $W=3.2e-07	$X=43.11 $Y=68.06
Rf259	net40#11	net40#14	1.666954	$MET1	$L=6.92775e-06
+ $W=3.2e-07	$X=43.11 $Y=59.5685
Rf262	VDD3#109	VDD3#112	0.661719	$MET1	$L=2.75e-06
+ $W=3.2e-07	$X=40.935 $Y=89.66
Rf263	VDD3#112	VDD3#111	1.210344	$MET1	$L=5.03e-06
+ $W=3.2e-07	$X=40.935 $Y=86.91
Rf264	VDD3#111	VDD3#114	1.114037	$MET1	$L=4.63975e-06
+ $W=3.2e-07	$X=40.935 $Y=79.56
Rf267	VDD3#116	VDD3#119	0.661719	$MET1	$L=2.75e-06
+ $W=3.2e-07	$X=43.975 $Y=109.02
Rf268	VDD3#119	VDD3#118	1.210344	$MET1	$L=5.03e-06
+ $W=3.2e-07	$X=43.975 $Y=106.27
Rf269	VDD3#118	VDD3#121	1.114037	$MET1	$L=4.63975e-06
+ $W=3.2e-07	$X=43.975 $Y=98.92
Rf272	VDD3#123	VDD3#126	0.661719	$MET1	$L=2.75e-06
+ $W=3.2e-07	$X=43.975 $Y=89.66
Rf273	VDD3#126	VDD3#125	1.210344	$MET1	$L=9.27e-06
+ $W=3.2e-07	$X=43.975 $Y=86.91
Rf279	OUT2#2	OUT2#1	1.209742	$MET1	$L=5.6725e-06	$W=3.2e-07
+ $X=46.15 $Y=68.06
Rf280	OUT2#1	OUT2#4	1.358954	$MET1	$L=5.64775e-06	$W=3.2e-07
+ $X=46.15 $Y=60.2085
Rf282	net25#4	net25#3	1.038297	$MET1	$L=4.96e-06
+ $W=3.2e-07	$X=48.005 $Y=22.0325
Rf284	net25#3	net25#7	0.892202	$MET1	$L=3.74725e-06
+ $W=3.2e-07	$X=48.005 $Y=17.2885
Rf286	net25#7	net25#9	2.355683	$MET1	$L=9.82975e-06
+ $W=3.2e-07	$X=47.145 $Y=15.415
Rf292	net40#17	net40#16	1.209742	$MET1	$L=5.6725e-06
+ $W=3.2e-07	$X=49.19 $Y=68.06
Rf293	net40#16	net40#19	1.666954	$MET1	$L=6.92775e-06
+ $W=3.2e-07	$X=49.19 $Y=59.5685
Rf301	VDD3	VDD3#129	0.677250	$MET1	$L=3.87e-06
+ $W=4.4e-07	$X=12.925 $Y=111.245
Rf302	VDD3#129	VDD3#130	8.354444	$MET1	$L=3.47298e-05
+ $W=3.2e-07	$X=12.955 $Y=113.01
Rf303	VDD3#130	VDD3#131	10.062938	$MET1	$L=4.184e-05
+ $W=3.2e-07	$X=33.905 $Y=74.58
Rf304	VDD3#131	VDD3#132	10.173625	$MET1	$L=4.23e-05
+ $W=3.2e-07	$X=54.825 $Y=74.58
Rf305	VDD3#132	VDD3#133	10.076526	$MET1	$L=4.19e-05
+ $W=3.2e-07	$X=33.875 $Y=116.88
Rf306	VDD3#133	VDD3	0.646248	$MET1	$L=3.70025e-06
+ $W=4.4e-07	$X=12.925 $Y=116.88
Rf327	net13#11	net13#14	0.634935	$MET1	$L=5.225e-06
+ $W=1	$X=53.0525 $Y=25.285
Rf329	net13#14	net13#53	1.162449	$MET1	$L=2.745e-06
+ $W=1	$X=62.7675 $Y=25.285
Rf332	net25#28	net25#29	2.355683	$MET1	$L=9.82975e-06
+ $W=3.2e-07	$X=73.185 $Y=25.2445
Rf334	net25#29	net25#31	0.892202	$MET1	$L=3.74725e-06
+ $W=3.2e-07	$X=72.325 $Y=17.2885
Rf336	net25#31	net25#34	1.038297	$MET1	$L=4.96e-06
+ $W=3.2e-07	$X=72.325 $Y=22.0325
Rf338	VDD3#134	VDD3#136	2.489549	$MET1	$L=1.0415e-05
+ $W=3.2e-07	$X=50.5825 $Y=26.845
Rf339	VDD3#136	VDD3#137	3.291750	$MET1	$L=1.37e-05
+ $W=3.2e-07	$X=45.375 $Y=26.845
Rf340	VDD3#137	VDD3#138	7.112875	$MET1	$L=2.958e-05
+ $W=3.2e-07	$X=60.165 $Y=13.145
Rf341	VDD3#138	VDD3#139	3.291750	$MET1	$L=1.37e-05
+ $W=3.2e-07	$X=74.955 $Y=13.145
Rf342	VDD3#139	VDD3#140	2.076226	$MET1	$L=9.16775e-06
+ $W=3.2e-07	$X=70.3735 $Y=26.845
Rf343	VDD3#140	VDD3#134	2.264083	$MET1	$L=9.99725e-06
+ $W=3.2e-07	$X=60.791 $Y=26.845
Rf351	VDD3#141	VDD3#144	0.664068	$MET1	$L=2.76975e-06
+ $W=3.2e-07	$X=9.515 $Y=71.445
Rf352	VDD3#144	VDD3#145	4.184469	$MET1	$L=1.741e-05
+ $W=3.2e-07	$X=8.13 $Y=71.445
Rf353	VDD3#145	VDD3#146	12.395939	$MET1	$L=5.1535e-05
+ $W=3.2e-07	$X=33.8975 $Y=54.035
Rf354	VDD3#146	VDD3#147	4.185215	$MET1	$L=1.82498e-05
+ $W=3.2e-07	$X=59.655 $Y=63.16
Rf356	VDD3#147	VDD3#149	5.277624	$MET1	$L=2.33027e-05
+ $W=3.2e-07	$X=47.856 $Y=71.445
Rf357	VDD3#147	VDD3#150	7.558116	$MET1	$L=3.14797e-05
+ $W=3.2e-07	$X=62.055 $Y=56.545
Rf358	VDD3#150	VDD3#151	4.374562	$MET1	$L=1.82e-05
+ $W=3.2e-07	$X=71.155 $Y=40.805
Rf359	VDD3#151	VDD3#152	18.524515	$MET1	$L=7.7005e-05
+ $W=3.2e-07	$X=80.255 $Y=40.805
Rf360	VDD3#152	VDD3#153	4.374562	$MET1	$L=1.82e-05
+ $W=3.2e-07	$X=71.155 $Y=117.81
Rf361	VDD3#153	VDD3#154	5.059976	$MET1	$L=2.23428e-05
+ $W=3.2e-07	$X=62.0575 $Y=117.81
Rf362	VDD3#149	VDD3#141	5.272802	$MET1	$L=2.32825e-05
+ $W=3.2e-07	$X=24.5635 $Y=71.445
Rf363	VDD3#154	VDD3#147	5.250154	$MET1	$L=2.31825e-05
+ $W=3.2e-07	$X=62.055 $Y=83.8785
Rf366	GNDA	GNDA#25	27.331444	$MET1	$L=0.00011595
+ $W=3.2e-07	$X=5.04 $Y=3.355
Rf367	GNDA#25	GNDA#26	19.243984	$MET1	$L=7.9995e-05
+ $W=3.2e-07	$X=45.0375 $Y=119.305
Rf368	GNDA#26	GNDA	27.331444	$MET1	$L=0.00011595
+ $W=3.2e-07	$X=85.035 $Y=119.305
Rf377	GNDA	GNDA#36	0.672956	$MET1	$L=2.93902e-05
+ $W=3.36e-06	$X=39.475 $Y=3.355
Rf380	GNDA#36	GNDA#39	3.685384	$MET1	$L=1.5375e-05
+ $W=3.2e-07	$X=31.5375 $Y=35.735
Rf381	GNDA#39	GNDA#40	3.828344	$MET1	$L=1.593e-05
+ $W=3.2e-07	$X=23.85 $Y=35.735
Rf382	GNDA#40	GNDA#41	4.348094	$MET1	$L=1.809e-05
+ $W=3.2e-07	$X=32.895 $Y=51.665
Rf383	GNDA#41	GNDA#36	3.828344	$MET1	$L=1.593e-05
+ $W=3.2e-07	$X=41.94 $Y=51.665
Rf385	GNDA	GNDA#44	0.583920	$MET1	$L=2.78575e-05
+ $W=3.36e-06	$X=9.22 $Y=4.8875
Rf386	GNDA#44	GNDA	0.529833	$MET1	$L=2.314e-05
+ $W=3.36e-06	$X=20.79 $Y=32.745
Rf389	GNDA#36	GNDA	0.874609	$MET1	$L=3.81748e-05
+ $W=3.36e-06	$X=58.5625 $Y=32.745
Rg1	net24#1	net24#2	15.474309	$POLY1	$L=5.22e-06
+ $W=2.53e-06	$X=12.91 $Y=61.135
Rg2	net24#2	net24#3	15.889328	$POLY1	$L=5.57e-06
+ $W=2.53e-06	$X=12.91 $Y=63.745
Rg3	net24#4	net24#5	15.474309	$POLY1	$L=5.22e-06
+ $W=2.53e-06	$X=15.95 $Y=61.135
Rg4	net24#5	net24#6	15.889328	$POLY1	$L=5.57e-06
+ $W=2.53e-06	$X=15.95 $Y=63.745
Rg5	net2#1	net2#2	1.803136	$POLY1	$L=6.9e-07	$W=2.87e-06
+ $X=19.81 $Y=48.705
Rg6	net2#2	net2#3	11.263066	$POLY1	$L=4.31e-06	$W=2.87e-06
+ $X=17.31 $Y=48.705
Rg7	net2#3	net2#4	1.881533	$POLY1	$L=7.2e-07	$W=2.87e-06
+ $X=14.795 $Y=48.705
Rg8	net2#4	net2#5	11.184669	$POLY1	$L=4.28e-06	$W=2.87e-06
+ $X=12.295 $Y=48.705
Rg9	net1	net1#2	1.790070	$POLY1	$L=6.85e-07	$W=2.87e-06
+ $X=19.8125 $Y=42.575
Rg10	net1#2	net1#3	11.276133	$POLY1	$L=4.315e-06	$W=2.87e-06
+ $X=17.3125 $Y=42.575
Rg11	net1#3	net1#4	1.861934	$POLY1	$L=7.125e-07	$W=2.87e-06
+ $X=14.7985 $Y=42.575
Rg12	net1#4	net1#5	11.204268	$POLY1	$L=4.2875e-06	$W=2.87e-06
+ $X=12.2985 $Y=42.575
Rg13	VDD3#1	VDD3#2	15.474309	$POLY1	$L=5.22e-06	$W=2.53e-06
+ $X=20.015 $Y=104.57
Rg14	VDD3#2	VDD3#3	15.889328	$POLY1	$L=5.57e-06	$W=2.53e-06
+ $X=20.015 $Y=101.96
Rg15	VDD3#4	VDD3#5	15.474309	$POLY1	$L=5.22e-06	$W=2.53e-06
+ $X=20.015 $Y=85.21
Rg16	VDD3#5	VDD3#6	15.889328	$POLY1	$L=5.57e-06	$W=2.53e-06
+ $X=20.015 $Y=82.6
Rg17	net13	net13#2	15.474309	$POLY1	$L=5.22e-06
+ $W=2.53e-06	$X=19.27 $Y=17.265
Rg18	net13#2	net13#3	16.045769	$POLY1	$L=5.41025e-06
+ $W=2.53e-06	$X=19.27 $Y=19.875
Rg19	net13#3	net13#4	26.816965	$POLY1	$L=1.51975e-06
+ $W=4.5e-07	$X=20.03 $Y=25.285
Rg20	net13#4	net13#5	26.825891	$POLY1	$L=1.52025e-06
+ $W=4.5e-07	$X=21.55 $Y=25.285
Rg21	net13#5	net13#6	16.045769	$POLY1	$L=5.41025e-06
+ $W=2.53e-06	$X=22.31 $Y=25.285
Rg22	net13#6	net13#7	15.474309	$POLY1	$L=5.22e-06
+ $W=2.53e-06	$X=22.31 $Y=19.875
Rg23	net24#7	net24#8	15.474309	$POLY1	$L=5.22e-06
+ $W=2.53e-06	$X=23.06 $Y=61.135
Rg24	net24#8	net24#9	15.889328	$POLY1	$L=5.57e-06
+ $W=2.53e-06	$X=23.06 $Y=63.745
Rg25	net17	net17#2	15.474309	$POLY1	$L=5.22e-06
+ $W=2.53e-06	$X=23.755 $Y=104.57
Rg26	net17#2	net17#3	15.889328	$POLY1	$L=5.57e-06
+ $W=2.53e-06	$X=23.755 $Y=101.96
Rg27	net17#4	net17#5	15.474309	$POLY1	$L=5.22e-06
+ $W=2.53e-06	$X=23.755 $Y=85.21
Rg28	net17#5	net17#6	15.889328	$POLY1	$L=5.57e-06
+ $W=2.53e-06	$X=23.755 $Y=82.6
Rg29	net24#10	net24#11	15.474309	$POLY1	$L=5.22e-06
+ $W=2.53e-06	$X=26.1 $Y=61.135
Rg30	net24#11	net24#12	15.889328	$POLY1	$L=5.57e-06
+ $W=2.53e-06	$X=26.1 $Y=63.745
Rg31	net1#6	net1#7	15.474309	$POLY1	$L=5.22e-06	$W=2.53e-06
+ $X=26.71 $Y=41.895
Rg32	net1#7	net1#8	15.889328	$POLY1	$L=5.57e-06	$W=2.53e-06
+ $X=26.71 $Y=44.505
Rg33	net17#7	net17#8	15.474309	$POLY1	$L=5.22e-06
+ $W=2.53e-06	$X=27.495 $Y=104.57
Rg34	net17#8	net17#9	15.889328	$POLY1	$L=5.57e-06
+ $W=2.53e-06	$X=27.495 $Y=101.96
Rg35	net17#10	net17#11	15.474309	$POLY1	$L=5.22e-06
+ $W=2.53e-06	$X=27.495 $Y=85.21
Rg36	net17#11	net17#12	15.889328	$POLY1	$L=5.57e-06
+ $W=2.53e-06	$X=27.495 $Y=82.6
Rg37	net1#9	net1#10	15.474309	$POLY1	$L=5.22e-06
+ $W=2.53e-06	$X=29.75 $Y=41.895
Rg38	net1#10	net1#11	15.889328	$POLY1	$L=5.57e-06
+ $W=2.53e-06	$X=29.75 $Y=44.505
Rg39	net17#13	net17#14	15.474309	$POLY1	$L=5.22e-06
+ $W=2.53e-06	$X=31.235 $Y=104.57
Rg40	net17#14	net17#15	15.889328	$POLY1	$L=5.57e-06
+ $W=2.53e-06	$X=31.235 $Y=101.96
Rg41	net17#16	net17#17	15.474309	$POLY1	$L=5.22e-06
+ $W=2.53e-06	$X=31.235 $Y=85.21
Rg42	net17#17	net17#18	15.889328	$POLY1	$L=5.57e-06
+ $W=2.53e-06	$X=31.235 $Y=82.6
Rg43	net24#13	net24#14	15.474309	$POLY1	$L=5.22e-06
+ $W=2.53e-06	$X=33.815 $Y=61.135
Rg44	net24#14	net24#15	15.889328	$POLY1	$L=5.57e-06
+ $W=2.53e-06	$X=33.815 $Y=63.745
Rg45	net17#19	net17#20	15.474309	$POLY1	$L=5.22e-06
+ $W=2.53e-06	$X=34.975 $Y=104.57
Rg46	net17#20	net17#21	15.889328	$POLY1	$L=5.57e-06
+ $W=2.53e-06	$X=34.975 $Y=101.96
Rg47	net17#22	net17#23	15.474309	$POLY1	$L=5.22e-06
+ $W=2.53e-06	$X=34.975 $Y=85.21
Rg48	net17#23	net17#24	15.889328	$POLY1	$L=5.57e-06
+ $W=2.53e-06	$X=34.975 $Y=82.6
Rg49	net1#12	net1#13	15.474309	$POLY1	$L=5.22e-06
+ $W=2.53e-06	$X=36.04 $Y=41.895
Rg50	net1#13	net1#14	15.889328	$POLY1	$L=5.57e-06
+ $W=2.53e-06	$X=36.04 $Y=44.505
Rg51	net24#16	net24#17	15.474309	$POLY1	$L=5.22e-06
+ $W=2.53e-06	$X=36.855 $Y=61.135
Rg52	net24#17	net24#18	15.889328	$POLY1	$L=5.57e-06
+ $W=2.53e-06	$X=36.855 $Y=63.745
Rg53	net17#25	net17#26	15.474309	$POLY1	$L=5.22e-06
+ $W=2.53e-06	$X=38.715 $Y=104.57
Rg54	net17#26	net17#27	15.889328	$POLY1	$L=5.57e-06
+ $W=2.53e-06	$X=38.715 $Y=101.96
Rg55	VDD3#7	VDD3#8	15.474309	$POLY1	$L=5.22e-06	$W=2.53e-06
+ $X=38.715 $Y=85.21
Rg56	VDD3#8	VDD3#9	15.889328	$POLY1	$L=5.57e-06	$W=2.53e-06
+ $X=38.715 $Y=82.6
Rg57	net1#15	net1#16	15.474309	$POLY1	$L=5.22e-06
+ $W=2.53e-06	$X=39.08 $Y=41.895
Rg58	net1#16	net1#17	15.889328	$POLY1	$L=5.57e-06
+ $W=2.53e-06	$X=39.08 $Y=44.505
Rg59	VDD3#10	VDD3#11	15.474309	$POLY1	$L=5.22e-06
+ $W=2.53e-06	$X=42.455 $Y=104.57
Rg60	VDD3#11	VDD3#12	15.889328	$POLY1	$L=5.57e-06
+ $W=2.53e-06	$X=42.455 $Y=101.96
Rg61	VDD3#13	VDD3#14	15.474309	$POLY1	$L=5.22e-06
+ $W=2.53e-06	$X=42.455 $Y=85.21
Rg62	VDD3#14	VDD3#15	15.889328	$POLY1	$L=5.57e-06
+ $W=2.53e-06	$X=42.455 $Y=82.6
Rg63	net24#19	net24#20	15.474309	$POLY1	$L=5.22e-06
+ $W=2.53e-06	$X=44.63 $Y=61.135
Rg64	net24#20	net24#21	15.889328	$POLY1	$L=5.57e-06
+ $W=2.53e-06	$X=44.63 $Y=63.745
Rg65	net24#22	net24#23	15.474309	$POLY1	$L=5.22e-06
+ $W=2.53e-06	$X=47.67 $Y=61.135
Rg66	net24#23	net24#24	15.889328	$POLY1	$L=5.57e-06
+ $W=2.53e-06	$X=47.67 $Y=63.745
Rg67	net24#25	net24#26	15.474309	$POLY1	$L=5.22e-06
+ $W=2.53e-06	$X=55.095 $Y=61.135
Rg68	net24#26	net24#27	15.889328	$POLY1	$L=5.57e-06
+ $W=2.53e-06	$X=55.095 $Y=63.745
Rg69	net25#1	net25#2	1.023573	$POLY1	$L=7.6e-07
+ $W=4.03e-06	$X=64.765 $Y=41.9595
Rg70	net13#8	net13#9	15.474309	$POLY1	$L=5.22e-06
+ $W=2.53e-06	$X=49.525 $Y=17.265
Rg71	net13#9	net13#10	16.045769	$POLY1	$L=5.41025e-06
+ $W=2.53e-06	$X=49.525 $Y=19.875
Rg72	net13#10	net13#11	53.638393	$POLY1	$L=3.03975e-06
+ $W=4.5e-07	$X=51.045 $Y=25.285
Rg73	net13#11	net13#12	53.647324	$POLY1	$L=3.04025e-06
+ $W=4.5e-07	$X=54.085 $Y=25.285
Rg74	net13#12	net13#13	53.642857	$POLY1	$L=3.04e-06
+ $W=4.5e-07	$X=57.125 $Y=25.285
Rg75	net13#13	net13#14	48.459824	$POLY1	$L=2.74975e-06
+ $W=4.5e-07	$X=60.02 $Y=25.285
Rg76	net13#14	net13#15	58.825893	$POLY1	$L=3.33025e-06
+ $W=4.5e-07	$X=63.06 $Y=25.285
Rg77	net13#15	net13#16	75.602676	$POLY1	$L=4.26975e-06
+ $W=4.5e-07	$X=66.86 $Y=25.285
Rg78	net13#11	net13#17	16.045019	$POLY1	$L=5.41e-06
+ $W=2.53e-06	$X=52.565 $Y=25.285
Rg79	net13#17	net13#18	15.474309	$POLY1	$L=5.22e-06
+ $W=2.53e-06	$X=52.565 $Y=19.875
Rg80	net13#12	net13#19	16.045769	$POLY1	$L=5.41025e-06
+ $W=2.53e-06	$X=55.605 $Y=25.285
Rg81	net13#19	net13#20	15.474309	$POLY1	$L=5.22e-06
+ $W=2.53e-06	$X=55.605 $Y=19.875
Rg82	net13#13	net13#21	16.045769	$POLY1	$L=5.41025e-06
+ $W=2.53e-06	$X=58.645 $Y=25.285
Rg83	net13#21	net13#22	15.474309	$POLY1	$L=5.22e-06
+ $W=2.53e-06	$X=58.645 $Y=19.875
Rg84	net13#14	net13#23	16.045019	$POLY1	$L=5.41e-06
+ $W=2.53e-06	$X=61.54 $Y=25.285
Rg85	net13#23	net13#24	15.474309	$POLY1	$L=5.22e-06
+ $W=2.53e-06	$X=61.685 $Y=19.875
Rg86	net13#15	net13#25	16.045769	$POLY1	$L=5.41025e-06
+ $W=2.53e-06	$X=64.725 $Y=25.285
Rg87	net13#25	net13#26	15.474309	$POLY1	$L=5.22e-06
+ $W=2.53e-06	$X=64.725 $Y=19.875
Rg88	net13#16	net13#27	16.045019	$POLY1	$L=5.41e-06
+ $W=2.53e-06	$X=68.38 $Y=25.285
Rg89	net13#27	net13#28	15.474309	$POLY1	$L=5.22e-06
+ $W=2.53e-06	$X=67.765 $Y=19.875
Rg90	net13#16	net13#29	31.659225	$POLY1	$L=1.81025e-06
+ $W=4.5e-07	$X=69.9 $Y=25.285
Rg91	net13#29	net13#30	16.045769	$POLY1	$L=5.41025e-06
+ $W=2.53e-06	$X=70.805 $Y=25.285
Rg92	net13#30	net13#31	15.474309	$POLY1	$L=5.22e-06
+ $W=2.53e-06	$X=70.805 $Y=19.875
Rg93	GNDA#1	GNDA#2	1.023573	$POLY1	$L=7.6e-07	$W=4.03e-06
+ $X=77.545 $Y=41.9595
Rcb1	GNDA#3	GNDA#4	2.500000	$cont	$A=1.452e-13	$N=3
+ $X=17.75 $Y=24.19
Rcb6	GNDA#13	GNDA#16	2.500000	$cont	$A=1.452e-13
+ $N=3	$X=23.83 $Y=24.19
Rcb7	net13#40	net13#41	2.500000	$cont	$A=1.452e-13
+ $N=3	$X=25.19 $Y=48.82
Rcb9	net1#35	net1#36	2.500000	$cont	$A=1.452e-13
+ $N=3	$X=28.23 $Y=48.82
Rcb11	net13#45	net13#46	2.500000	$cont	$A=1.452e-13
+ $N=3	$X=31.27 $Y=48.82
Rcb13	net23	net23#2	2.500000	$cont	$A=1.452e-13	$N=3
+ $X=34.52 $Y=48.82
Rcb15	net24#69	net24#70	2.500000	$cont	$A=1.452e-13
+ $N=3	$X=37.56 $Y=48.82
Rcb17	net23#6	net23#7	2.500000	$cont	$A=1.452e-13
+ $N=3	$X=40.6 $Y=48.82
Rcb19	net25#3	net25#4	2.500000	$cont	$A=1.452e-13
+ $N=3	$X=48.005 $Y=24.19
Rcb36	net25#31	net25#34	2.500000	$cont	$A=1.452e-13
+ $N=3	$X=72.325 $Y=24.19
Rcb_1_1	net24#3	net24#28	1.500000	$cont	$A=2.42e-13
+ $N=5	$X=12.91 $Y=69.105
Rcb_1_2	net24#6	net24#34	1.500000	$cont	$A=2.42e-13
+ $N=5	$X=15.95 $Y=69.105
Rcb_1_4	net2#2	net2#4	2.500000	$cont	$A=1.452e-13	$N=3
+ $X=19.465 $Y=47.495
Rcb_1_6	net1#2	net1#4	2.500000	$cont	$A=1.452e-13	$N=3
+ $X=19.47 $Y=41.365
Rcb_1_7	VDD3#3	VDD3#21	1.500000	$cont	$A=2.42e-13	$N=5
+ $X=20.015 $Y=96.6
Rcb_1_8	VDD3#6	VDD3#28	1.500000	$cont	$A=2.42e-13	$N=5
+ $X=20.015 $Y=77.24
Rcb_1_9	net13#4	net13#37	0.681818	$cont	$A=5.324e-13
+ $N=11	$X=20.79 $Y=25.285
Rcb_1_10	net17#3	net17#35	1.500000	$cont
+ $A=2.42e-13	$N=5	$X=23.755 $Y=96.6
Rcb_1_11	net17#6	net17#38	1.500000	$cont
+ $A=2.42e-13	$N=5	$X=23.755 $Y=77.24
Rcb_1_12	net24#12	net24#47	1.500000	$cont
+ $A=2.42e-13	$N=5	$X=26.1 $Y=69.105
Rcb_1_13	net24#9	net24#47	1.500000	$cont
+ $A=2.42e-13	$N=5	$X=23.06 $Y=69.105
Rcb_1_14	net1#8	net1#29	1.500000	$cont	$A=2.42e-13
+ $N=5	$X=26.71 $Y=49.865
Rcb_1_15	net17#9	net17#50	1.500000	$cont
+ $A=2.42e-13	$N=5	$X=27.495 $Y=96.6
Rcb_1_16	net17#12	net17#53	1.500000	$cont
+ $A=2.42e-13	$N=5	$X=27.495 $Y=77.24
Rcb_1_17	net1#11	net1#40	1.500000	$cont
+ $A=2.42e-13	$N=5	$X=29.75 $Y=49.865
Rcb_1_18	net17#15	net17#66	1.500000	$cont
+ $A=2.42e-13	$N=5	$X=31.235 $Y=96.6
Rcb_1_19	net17#18	net17#69	1.500000	$cont
+ $A=2.42e-13	$N=5	$X=31.235 $Y=77.24
Rcb_1_20	net24#15	net24#63	1.500000	$cont
+ $A=2.42e-13	$N=5	$X=33.815 $Y=69.105
Rcb_1_21	net17#21	net17#82	1.500000	$cont
+ $A=2.42e-13	$N=5	$X=34.975 $Y=96.6
Rcb_1_22	net17#24	net17#85	1.500000	$cont
+ $A=2.42e-13	$N=5	$X=34.975 $Y=77.24
Rcb_1_23	net1#14	net1#46	1.500000	$cont
+ $A=2.42e-13	$N=5	$X=36.04 $Y=49.865
Rcb_1_24	net24#18	net24#74	1.500000	$cont
+ $A=2.42e-13	$N=5	$X=36.855 $Y=69.105
Rcb_1_25	net17#27	net17#92	1.500000	$cont
+ $A=2.42e-13	$N=5	$X=38.715 $Y=96.6
Rcb_1_26	net1#17	net1#52	1.500000	$cont
+ $A=2.42e-13	$N=5	$X=39.08 $Y=49.865
Rcb_1_27	VDD3#9	VDD3#102	1.500000	$cont	$A=2.42e-13
+ $N=5	$X=38.715 $Y=77.24
Rcb_1_28	VDD3#15	VDD3#114	1.500000	$cont
+ $A=2.42e-13	$N=5	$X=42.455 $Y=77.24
Rcb_1_29	VDD3#12	VDD3#121	1.500000	$cont
+ $A=2.42e-13	$N=5	$X=42.455 $Y=96.6
Rcb_1_30	net24#21	net24#80	1.500000	$cont
+ $A=2.42e-13	$N=5	$X=44.63 $Y=69.105
Rcb_1_31	net24#24	net24#86	1.500000	$cont
+ $A=2.42e-13	$N=5	$X=47.67 $Y=69.105
Rcb_1_32	net24#27	net24#92	1.500000	$cont
+ $A=2.42e-13	$N=5	$X=55.095 $Y=69.105
Rcb_1_33	net25#2	net25#22	0.937500	$cont
+ $A=3.872e-13	$N=8	$X=64.765 $Y=41.685
Rcb_1_36	net13#16	net13#53	0.576923	$cont
+ $A=6.292e-13	$N=13	$X=68.995 $Y=25.285
Rcb_1_37	GNDA#2	GNDA	0.937500	$cont	$A=3.872e-13	$N=8
+ $X=77.545 $Y=41.685
Rcb_2_1	net18	net18#2	2.500000	$cont	$A=1.452e-13	$N=3
+ $X=11.39 $Y=68.06
Rcb_2_3	net1#18	net1#19	2.500000	$cont	$A=1.452e-13
+ $N=3	$X=14.43 $Y=68.06
Rcb_2_5	net18#6	net18#7	2.500000	$cont	$A=1.452e-13
+ $N=3	$X=17.47 $Y=68.06
Rcb_2_7	net2#15	net2#10	1.875000	$cont	$A=1.936e-13
+ $N=4	$X=9.885 $Y=42.775
Rcb_2_8	net2#18	net2#10	1.875000	$cont	$A=1.936e-13
+ $N=4	$X=9.885 $Y=48.905
Rcb_2_9	VDD3#18	VDD3#19	2.500000	$cont	$A=1.452e-13
+ $N=3	$X=18.495 $Y=106.27
Rcb_2_11	VDD3#25	VDD3#26	2.500000	$cont
+ $A=1.452e-13	$N=3	$X=18.495 $Y=86.91
Rcb_2_13	net24#40	net24#41	1.875000	$cont
+ $A=1.936e-13	$N=4	$X=20.425 $Y=48.905
Rcb_2_14	VDD3#32	VDD3#33	2.500000	$cont
+ $A=1.452e-13	$N=3	$X=21.535 $Y=106.27
Rcb_2_16	VDD3#37	VDD3#38	2.500000	$cont
+ $A=1.452e-13	$N=3	$X=21.535 $Y=86.91
Rcb_2_18	net17#28	net17#29	2.500000	$cont
+ $A=1.452e-13	$N=3	$X=21.54 $Y=68.06
Rcb_2_20	VDD3#42	VDD3#43	2.500000	$cont
+ $A=1.452e-13	$N=3	$X=22.235 $Y=106.27
Rcb_2_22	VDD3#47	VDD3#48	2.500000	$cont
+ $A=1.452e-13	$N=3	$X=22.235 $Y=86.91
Rcb_2_24	net1#27	net1#26	1.875000	$cont
+ $A=1.936e-13	$N=4	$X=20.425 $Y=42.775
Rcb_2_25	net40	net40#2	2.500000	$cont	$A=1.452e-13
+ $N=3	$X=25.275 $Y=106.27
Rcb_2_27	net40#6	net40#7	2.500000	$cont
+ $A=1.452e-13	$N=3	$X=25.275 $Y=86.91
Rcb_2_29	VDD3#52	VDD3#53	2.500000	$cont
+ $A=1.452e-13	$N=3	$X=25.975 $Y=106.27
Rcb_2_31	VDD3#57	VDD3#58	2.500000	$cont
+ $A=1.452e-13	$N=3	$X=25.975 $Y=86.91
Rcb_2_33	net24#54	net24#47	2.500000	$cont
+ $A=1.452e-13	$N=3	$X=24.58 $Y=68.06
Rcb_2_35	net17#43	net17#44	2.500000	$cont
+ $A=1.452e-13	$N=3	$X=27.62 $Y=68.06
Rcb_2_37	net18#11	net18#12	2.500000	$cont
+ $A=1.452e-13	$N=3	$X=29.015 $Y=106.27
Rcb_2_39	VDD3#69	VDD3#70	2.500000	$cont
+ $A=1.452e-13	$N=3	$X=29.715 $Y=106.27
Rcb_2_41	VDD3#74	VDD3#75	2.500000	$cont
+ $A=1.452e-13	$N=3	$X=29.715 $Y=86.91
Rcb_2_43	net17#61	net17#62	2.500000	$cont
+ $A=1.452e-13	$N=3	$X=29.015 $Y=86.91
Rcb_2_45	net30	net30#2	2.500000	$cont	$A=1.452e-13
+ $N=3	$X=32.295 $Y=68.06
Rcb_2_47	net18#16	net18#17	2.500000	$cont
+ $A=1.452e-13	$N=3	$X=32.755 $Y=86.91
Rcb_2_49	VDD3#79	VDD3#80	2.500000	$cont
+ $A=1.452e-13	$N=3	$X=33.455 $Y=106.27
Rcb_2_51	VDD3#84	VDD3#85	2.500000	$cont
+ $A=1.452e-13	$N=3	$X=33.455 $Y=86.91
Rcb_2_53	net17#77	net17#78	2.500000	$cont
+ $A=1.452e-13	$N=3	$X=32.755 $Y=106.27
Rcb_2_55	OUT1#1	OUT1#2	2.500000	$cont	$A=1.452e-13	$N=3
+ $X=35.335 $Y=68.06
Rcb_2_57	net30#6	net30#7	2.500000	$cont
+ $A=1.452e-13	$N=3	$X=36.495 $Y=106.27
Rcb_2_59	net30#11	net30#12	2.500000	$cont
+ $A=1.452e-13	$N=3	$X=36.495 $Y=86.91
Rcb_2_61	VDD3#89	VDD3#90	2.500000	$cont
+ $A=1.452e-13	$N=3	$X=37.195 $Y=106.27
Rcb_2_63	VDD3#94	VDD3#95	2.500000	$cont
+ $A=1.452e-13	$N=3	$X=37.195 $Y=86.91
Rcb_2_65	net30#16	net30#17	2.500000	$cont
+ $A=1.452e-13	$N=3	$X=38.375 $Y=68.06
Rcb_2_67	VDD3#99	VDD3#100	2.500000	$cont
+ $A=1.452e-13	$N=3	$X=40.235 $Y=86.91
Rcb_2_69	net47	net47#2	2.500000	$cont	$A=1.452e-13
+ $N=3	$X=40.235 $Y=106.27
Rcb_2_71	VDD3#106	VDD3#107	2.500000	$cont
+ $A=1.452e-13	$N=3	$X=40.935 $Y=106.27
Rcb_2_73	net40#11	net40#12	2.500000	$cont
+ $A=1.452e-13	$N=3	$X=43.11 $Y=68.06
Rcb_2_75	VDD3#111	VDD3#112	2.500000	$cont
+ $A=1.452e-13	$N=3	$X=40.935 $Y=86.91
Rcb_2_77	VDD3#118	VDD3#119	2.500000	$cont
+ $A=1.452e-13	$N=3	$X=43.975 $Y=106.27
Rcb_2_79	VDD3#125	VDD3#126	2.500000	$cont
+ $A=1.452e-13	$N=3	$X=43.975 $Y=86.91
Rcb_2_81	OUT2#1	OUT2#2	2.500000	$cont	$A=1.452e-13	$N=3
+ $X=46.15 $Y=68.06
Rcb_2_83	net40#16	net40#17	2.500000	$cont
+ $A=1.452e-13	$N=3	$X=49.19 $Y=68.06
Rbb1	net24#41	net24#96	1.125000	$via1	$A=2.704e-13
+ $N=4	$X=19.445 $Y=51.78
Rbb2	net18#9	net18#21	1.125000	$via1	$A=2.704e-13
+ $N=4	$X=17.47 $Y=57.075
Rbb3	net18#4	net18#21	1.125000	$via1	$A=2.704e-13
+ $N=4	$X=11.39 $Y=57.075
Rbb5	net2#10	net2#24	1.125000	$via1	$A=2.704e-13
+ $N=4	$X=8.125 $Y=47.48
Rbb9	net24#57	net24#100	1.125000	$via1	$A=2.704e-13
+ $N=4	$X=24.58 $Y=56.935
Rbb10	net17#46	net17#97	1.125000	$via1	$A=2.704e-13
+ $N=4	$X=27.62 $Y=55.655
Rbb11	net17#31	net17#97	1.125000	$via1	$A=2.704e-13
+ $N=4	$X=21.54 $Y=55.655
Rbb12	OUT1#4	OUT1#6	1.125000	$via1	$A=2.704e-13	$N=4
+ $X=35.335 $Y=56.935
Rbb13	net23#9	net23#27	1.125000	$via1	$A=2.704e-13
+ $N=4	$X=40.6 $Y=37.045
Rbb14	net23#4	net23#27	1.125000	$via1	$A=2.704e-13
+ $N=4	$X=34.52 $Y=37.045
Rbb15	net24#72	net24#104	1.125000	$via1	$A=2.704e-13
+ $N=4	$X=37.56 $Y=38.325
Rbb16	net1#52	net1#58	1.125000	$via1	$A=2.704e-13
+ $N=4	$X=39.08 $Y=50.605
Rbb17	net1#46	net1#58	1.125000	$via1	$A=2.704e-13
+ $N=4	$X=36.04 $Y=50.605
Rbb18	net1#40	net1#61	1.125000	$via1	$A=2.704e-13
+ $N=4	$X=29.75 $Y=50.605
Rbb19	net1#29	net1#61	1.125000	$via1	$A=2.704e-13
+ $N=4	$X=26.71 $Y=50.605
Rbb20	net1#21	net1#66	1.125000	$via1	$A=2.704e-13
+ $N=4	$X=14.43 $Y=55.795
Rbb21	net1#26	net1#69	0.562500	$via1	$A=5.408e-13
+ $N=8	$X=21.995 $Y=42.825
Rbb22	net1#38	net1#69	1.125000	$via1	$A=2.704e-13
+ $N=4	$X=28.23 $Y=38.325
Rbb24	net30#19	net30#21	1.125000	$via1	$A=2.704e-13
+ $N=4	$X=38.375 $Y=55.655
Rbb25	net30#4	net30#21	1.125000	$via1	$A=2.704e-13
+ $N=4	$X=32.295 $Y=55.655
Rbb26	OUT2#4	OUT2#6	1.125000	$via1	$A=2.704e-13	$N=4
+ $X=46.15 $Y=56.935
Rbb28	net40#19	net40#21	1.125000	$via1	$A=2.704e-13
+ $N=4	$X=49.19 $Y=55.655
Rbb29	net40#14	net40#21	1.125000	$via1	$A=2.704e-13
+ $N=4	$X=43.11 $Y=55.655
Rbb31	net47#4	net47#15	1.125000	$via1	$A=2.704e-13
+ $N=4	$X=40.235 $Y=115.67
Rbb32	net40#4	net40#30	1.125000	$via1	$A=2.704e-13
+ $N=4	$X=25.275 $Y=114.39
Rbb33	net30#9	net30#30	1.125000	$via1	$A=2.704e-13
+ $N=4	$X=36.495 $Y=113.11
Rbb34	net18#14	net18#29	1.125000	$via1	$A=2.704e-13
+ $N=4	$X=29.015 $Y=111.83
Rbb35	net17#74	net17#104	1.125000	$via1	$A=2.704e-13
+ $N=4	$X=32.755 $Y=110.55
Rbb36	VDD3#116	VDD3	1.500000	$via1	$A=2.028e-13	$N=3
+ $X=43.975 $Y=109.02
Rbb37	VDD3#104	VDD3	1.500000	$via1	$A=2.028e-13	$N=3
+ $X=40.935 $Y=109.02
Rbb38	VDD3#87	VDD3	1.500000	$via1	$A=2.028e-13	$N=3
+ $X=37.195 $Y=109.02
Rbb39	VDD3#77	VDD3	1.500000	$via1	$A=2.028e-13	$N=3
+ $X=33.455 $Y=109.02
Rbb40	VDD3#67	VDD3	1.500000	$via1	$A=2.028e-13	$N=3
+ $X=29.715 $Y=109.02
Rbb41	VDD3#50	VDD3	1.500000	$via1	$A=2.028e-13	$N=3
+ $X=25.975 $Y=109.02
Rbb42	VDD3#40	VDD3	1.500000	$via1	$A=2.028e-13	$N=3
+ $X=22.235 $Y=109.02
Rbb43	VDD3#30	VDD3	1.500000	$via1	$A=2.028e-13	$N=3
+ $X=21.535 $Y=109.02
Rbb44	VDD3#16	VDD3	1.500000	$via1	$A=2.028e-13	$N=3
+ $X=18.495 $Y=109.02
Rbb45	net40#9	net40#34	1.125000	$via1	$A=2.704e-13
+ $N=4	$X=25.275 $Y=95.03
Rbb46	net30#14	net30#34	1.125000	$via1	$A=2.704e-13
+ $N=4	$X=36.495 $Y=93.75
Rbb47	net18#19	net18#32	1.125000	$via1	$A=2.704e-13
+ $N=4	$X=32.755 $Y=92.47
Rbb48	net17#90	net17#108	2.250000	$via1	$A=1.352e-13
+ $N=2	$X=38.715 $Y=91.19
Rbb49	net17#80	net17#108	2.250000	$via1	$A=1.352e-13
+ $N=2	$X=34.975 $Y=91.19
Rbb50	net17#64	net17#108	2.250000	$via1	$A=1.352e-13
+ $N=2	$X=31.235 $Y=91.19
Rbb51	net17#58	net17#108	1.125000	$via1	$A=2.704e-13
+ $N=4	$X=29.015 $Y=91.19
Rbb52	net17#48	net17#108	2.250000	$via1	$A=1.352e-13
+ $N=2	$X=27.495 $Y=91.19
Rbb53	net17#33	net17#108	2.250000	$via1	$A=1.352e-13
+ $N=2	$X=23.755 $Y=91.19
Rbb54	VDD3#123	VDD3#168	1.500000	$via1	$A=2.028e-13
+ $N=3	$X=43.975 $Y=89.66
Rbb55	VDD3#109	VDD3#168	1.500000	$via1	$A=2.028e-13
+ $N=3	$X=40.935 $Y=89.66
Rbb56	VDD3#97	VDD3#168	1.500000	$via1	$A=2.028e-13
+ $N=3	$X=40.235 $Y=89.66
Rbb57	VDD3#92	VDD3#168	1.500000	$via1	$A=2.028e-13
+ $N=3	$X=37.195 $Y=89.66
Rbb58	VDD3#82	VDD3#168	1.500000	$via1	$A=2.028e-13
+ $N=3	$X=33.455 $Y=89.66
Rbb59	VDD3#72	VDD3#168	1.500000	$via1	$A=2.028e-13
+ $N=3	$X=29.715 $Y=89.66
Rbb60	VDD3#55	VDD3#168	1.500000	$via1	$A=2.028e-13
+ $N=3	$X=25.975 $Y=89.66
Rbb61	VDD3#45	VDD3#168	1.500000	$via1	$A=2.028e-13
+ $N=3	$X=22.235 $Y=89.66
Rbb62	VDD3#35	VDD3#168	1.500000	$via1	$A=2.028e-13
+ $N=3	$X=21.535 $Y=89.66
Rbb63	VDD3#23	VDD3#168	1.500000	$via1	$A=2.028e-13
+ $N=3	$X=18.495 $Y=89.66
Rbb64	net17#85	net17#117	2.250000	$via1	$A=1.352e-13
+ $N=2	$X=34.975 $Y=75.79
Rbb65	net17#69	net17#117	2.250000	$via1	$A=1.352e-13
+ $N=2	$X=31.235 $Y=75.79
Rbb66	net17#53	net17#117	2.250000	$via1	$A=1.352e-13
+ $N=2	$X=27.495 $Y=75.79
Rbb67	net17#38	net17#117	2.250000	$via1	$A=1.352e-13
+ $N=2	$X=23.755 $Y=75.79
Rbb68	net24#28	net24#108	1.125000	$via1	$A=2.704e-13
+ $N=4	$X=12.91 $Y=70.305
Rbb69	net24#34	net24#108	1.125000	$via1	$A=2.704e-13
+ $N=4	$X=15.95 $Y=70.305
Rbb70	net24#47	net24#111	1.125000	$via1	$A=2.704e-13
+ $N=4	$X=23.06 $Y=70.305
Rbb71	net24#47	net24#111	1.125000	$via1	$A=2.704e-13
+ $N=4	$X=26.1 $Y=70.305
Rbb72	net24#63	net24#113	1.125000	$via1	$A=2.704e-13
+ $N=4	$X=33.815 $Y=70.305
Rbb73	net24#74	net24#113	1.125000	$via1	$A=2.704e-13
+ $N=4	$X=36.855 $Y=70.305
Rbb74	net24#80	net24#115	1.125000	$via1	$A=2.704e-13
+ $N=4	$X=44.63 $Y=70.305
Rbb75	net24#86	net24#115	1.125000	$via1	$A=2.704e-13
+ $N=4	$X=47.67 $Y=70.305
Rbb76	net24#92	net24#117	2.250000	$via1	$A=1.352e-13
+ $N=2	$X=55.095 $Y=70.305
Rbb86	net13#53	net13#56	0.900000	$via1	$A=3.38e-13
+ $N=5	$X=70.765 $Y=25.285
Rbb91	net13#43	net13#37	1.125000	$via1	$A=2.704e-13
+ $N=4	$X=25.19 $Y=37.045
Rbb92	net13#48	net13#37	1.125000	$via1	$A=2.704e-13
+ $N=4	$X=31.27 $Y=37.045
Ru4	net18#30	net18#34	0.750000	$via2CON
+ $A=4.056e-13	$N=6	$X=14.445 $Y=111.83
Ru5	net18#33	net18#36	0.750000	$via2CON
+ $A=4.056e-13	$N=6	$X=14.445 $Y=92.47
Ru7	net24#100	net24	1.125000	$via2CON	$A=2.704e-13
+ $N=4	$X=24.585 $Y=56.935
Ru8	net24#96	net24	1.125000	$via2CON	$A=2.704e-13
+ $N=4	$X=19.445 $Y=51.78
Ru9	net24#104	net24#126	1.125000	$via2CON
+ $A=2.704e-13	$N=4	$X=33.045 $Y=41.545
Ru13	net17#102	net17#122	0.750000	$via2CON
+ $A=4.056e-13	$N=6	$X=48.025 $Y=110.55
Ru14	net17#106	net17#124	0.750000	$via2CON
+ $A=4.056e-13	$N=6	$X=48.025 $Y=91.19
Ru15	net17#115	net17#125	0.750000	$via2CON
+ $A=4.056e-13	$N=6	$X=48.025 $Y=75.79
Ru17	net30#28	net30#36	0.750000	$via2CON
+ $A=4.056e-13	$N=6	$X=49.805 $Y=113.11
Ru18	net30#32	net30#38	0.750000	$via2CON
+ $A=4.056e-13	$N=6	$X=49.805 $Y=93.75
Ru21	net40#32	net40#38	0.750000	$via2CON
+ $A=4.056e-13	$N=6	$X=51.585 $Y=95.03
Ru22	net40#28	net40#39	0.750000	$via2CON
+ $A=4.056e-13	$N=6	$X=51.585 $Y=114.39
Ru23	net47#16	net47#17	0.750000	$via2CON
+ $A=4.056e-13	$N=6	$X=53.365 $Y=115.67
*
*       CAP/DIODE CARDS
*
*
DD0_unmatched	GNDA	VDD3	p_dnw	4.77568e-10	0.00014131 
+  perimeter=0.00014131  model=dnw
DD1_unmatched	GNDA	VDD3	p_dnw	1.16854e-09	0.00017172 
+  perimeter=0.00017172  model=dnw
DD2_unmatched	GNDA	VDD3	p_dnw	1.48411e-09	0.00019385 
+  perimeter=0.00019385  model=dnw
DX116/D8_unmatched	GNDA	VDD3	p_ddnw	5.2432e-10	0.00011224 
+  perimeter=0.00011224  model=ddnw
DX92/D2_unmatched	GNDA	VDD3	p_ddnw	3.07331e-10	7.576e-05 
+  perimeter=7.576e-05  model=ddnw
DX116/D9_unmatched	net25	VDD3	p_dipdnwmv	1.51486e-10
+ 8.144e-05 	 perimeter=8.144e-05  model=dipdnwmv
DX92/D3_unmatched	GNDA	VDD3	p_dipdnwmv	7.49452e-11
+ 4.496e-05 	 perimeter=4.496e-05  model=dipdnwmv
DX101/D1_unmatched	GNDA	VDD3	p_dnw3	6.65712e-11	0.000e+00 
+  perimeter=0  model=dnw3
DX100/D2_unmatched	GNDA	VDD3	p_dnw3	1.03234e-10	0.000e+00 
+  perimeter=0  model=dnw3
DX99/D2_unmatched	GNDA	VDD3	p_dnw3	1.03234e-10	0.000e+00 
+  perimeter=0  model=dnw3
DX98/D2_unmatched	GNDA	VDD3	p_dnw3	1.03234e-10	0.000e+00 
+  perimeter=0  model=dnw3
DX97/D2_unmatched	GNDA	VDD3	p_dnw3	1.03234e-10	0.000e+00 
+  perimeter=0  model=dnw3
DX94/D1_unmatched	GNDA	net24	p_dnw3	4.57434e-11	3.138e-05 
+  perimeter=3.138e-05  model=dnw3
DX93/D1_unmatched	GNDA	net2	p_dnw3	4.57434e-11	3.138e-05 
+  perimeter=3.138e-05  model=dnw3
DD3_unmatched	GNDA	VDD3	p_dnw3	3.37198e-10	0.000e+00 
+  perimeter=0  model=dnw3
DD4_unmatched	GNDA	VDD3	p_dnw3	3.37198e-10	0.000e+00 
+  perimeter=0  model=dnw3
*
*
*       CAPACITOR CARDS
*
*
C1	VDD3#146	VDD3	1.58573e-15	$X=46.6915 $Y=54.0405
C2	VDD3#150	VDD3	1.77888e-15	$X=62.0495 $Y=48.385
C3	VDD3#151	VDD3	3.65988e-15	$X=80.2365 $Y=59.9755
C4	VDD3#152	VDD3	4.19571e-15	$X=80.2365 $Y=98.6295
C5	VDD3#149	VDD3	7.28129e-15	$X=60.829 $Y=72.283
C6	VDD3#134	VDD3	2.19394e-15	$X=60.7705 $Y=30.364
C7	VDD3#60	VDD3	1.63819e-15	$X=10.459 $Y=27.28
C8	VDD3#147	VDD3#149	1.92312e-15	$X=60.0375 $Y=69.772
C9	VDD3#133	VDD3	1.35936e-15	$X=23.5335 $Y=116.8695
C10	VDD3#131	VDD3	2.26859e-15	$X=54.819 $Y=85.063
C11	VDD3#132	VDD3	2.6787e-15	$X=54.819 $Y=106.3745
C12	VDD3#129	VDD3	1.37932e-15	$X=12.99 $Y=101.5985
C13	VDD3#145	VDD3	1.859e-15	$X=21.1075 $Y=54.0405
C14	VDD3#43	VDD3#42	4.26626e-17	$X=22.2355 $Y=106.1705
C15	VDD3#26	VDD3	4.31176e-17	$X=18.495 $Y=87.227
C16	VDD3#126	VDD3	4.31176e-17	$X=43.974 $Y=87.227
C17	VDD3#102	VDD3#114	4.35308e-17	$X=40.5845 $Y=77.2395
C18	VDD3#38	VDD3#37	4.41206e-17	$X=21.533 $Y=86.8105
C19	VDD3#53	VDD3#52	4.41206e-17	$X=25.9755 $Y=106.1705
C20	VDD3#58	VDD3#57	4.41206e-17	$X=25.9755 $Y=86.8105
C21	VDD3#70	VDD3#69	4.41206e-17	$X=29.7155 $Y=106.1705
C22	VDD3#75	VDD3#74	4.41206e-17	$X=29.7155 $Y=86.8105
C23	VDD3#80	VDD3#79	4.41206e-17	$X=33.4555 $Y=106.1705
C24	VDD3#85	VDD3#84	4.41206e-17	$X=33.4555 $Y=86.8105
C25	VDD3#90	VDD3#89	4.41206e-17	$X=37.1955 $Y=106.1705
C26	VDD3#95	VDD3#94	4.41206e-17	$X=37.1955 $Y=86.8105
C27	VDD3#107	VDD3#106	4.41206e-17	$X=40.9355 $Y=106.1705
C28	VDD3#112	VDD3#111	4.41206e-17	$X=40.9355 $Y=86.81
C29	VDD3#33	VDD3#32	4.41206e-17	$X=21.533 $Y=106.1705
C30	VDD3#146	VDD3#149	4.55942e-17	$X=49.489 $Y=57.638
C31	VDD3#207	VDD3#111	4.93164e-17	$X=42.405 $Y=82.1925
C32	VDD3#202	VDD3#37	4.93221e-17	$X=20.069 $Y=82.2135
C33	VDD3#168	VDD3#14	5.27616e-17	$X=40.8695 $Y=85.2585
C34	VDD3#168	VDD3#8	5.27616e-17	$X=37.7035 $Y=85.2585
C35	VDD3#168	VDD3#5	5.27616e-17	$X=21.872 $Y=85.2585
C36	VDD3#168	VDD3#131	5.55665e-17	$X=52.16 $Y=85.957
C37	VDD3#38	VDD3#5	5.77154e-17	$X=21.481 $Y=87.112
C38	VDD3#95	VDD3#8	5.77154e-17	$X=37.2475 $Y=87.112
C39	VDD3#100	VDD3#8	5.77154e-17	$X=40.181 $Y=87.112
C40	VDD3#107	VDD3#10	5.77154e-17	$X=40.9875 $Y=106.472
C41	VDD3#112	VDD3#14	5.77154e-17	$X=40.9875 $Y=87.112
C42	VDD3#33	VDD3#1	5.77154e-17	$X=21.481 $Y=106.472
C43	VDD3#196	VDD3#149	6.01497e-17	$X=59.0185 $Y=59.2145
C44	VDD3#202	VDD3#141	6.42464e-17	$X=15.62 $Y=81.018
C45	VDD3#19	VDD3#18	6.63228e-17	$X=18.4955 $Y=106.17
C46	VDD3#26	VDD3#25	6.63228e-17	$X=18.4955 $Y=86.81
C47	VDD3#119	VDD3#118	6.63228e-17	$X=43.973 $Y=106.17
C48	VDD3#126	VDD3#125	6.63228e-17	$X=43.973 $Y=86.8105
C49	VDD3#141	VDD3#168	6.81458e-17	$X=22.715 $Y=84.174
C50	VDD3#26	VDD3#5	7.65982e-17	$X=18.5475 $Y=87.112
C51	VDD3#119	VDD3#10	7.65982e-17	$X=43.921 $Y=106.472
C52	VDD3#126	VDD3#14	7.65982e-17	$X=43.921 $Y=87.112
C53	VDD3#19	VDD3#1	7.65982e-17	$X=18.5475 $Y=106.472
C54	VDD3	VDD3#19	7.83066e-17	$X=18.495 $Y=106.5865
C55	VDD3#119	VDD3	7.83066e-17	$X=43.974 $Y=106.5865
C56	VDD3#106	VDD3#12	8.11347e-17	$X=41.713 $Y=99.724
C57	VDD3#94	VDD3#9	8.11347e-17	$X=37.9725 $Y=80.364
C58	VDD3#32	VDD3#3	8.11347e-17	$X=20.756 $Y=99.724
C59	VDD3#37	VDD3#6	8.11347e-17	$X=20.756 $Y=80.364
C60	VDD3#109	VDD3	8.12346e-17	$X=40.9345 $Y=89.337
C61	VDD3#35	VDD3	8.12346e-17	$X=21.5345 $Y=89.337
C62	VDD3#111	VDD3#15	8.15569e-17	$X=41.7145 $Y=80.3455
C63	VDD3#99	VDD3#9	8.15569e-17	$X=39.454 $Y=80.3455
C64	VDD3#72	VDD3	9.03846e-17	$X=29.7145 $Y=89.337
C65	VDD3#168	VDD3#35	9.59385e-17	$X=21.6055 $Y=89.3595
C66	VDD3#168	VDD3#45	9.59385e-17	$X=22.301 $Y=89.3595
C67	VDD3#168	VDD3#97	9.59385e-17	$X=40.1795 $Y=89.3595
C68	VDD3#168	VDD3#109	9.59385e-17	$X=40.875 $Y=89.3595
C69	VDD3#168	VDD3#55	9.66492e-17	$X=26.0155 $Y=89.3595
C70	VDD3#168	VDD3#82	9.67958e-17	$X=33.4455 $Y=89.3595
C71	VDD3#168	VDD3#92	9.68033e-17	$X=37.16 $Y=89.3595
C72	VDD3#168	VDD3#72	9.74571e-17	$X=29.7305 $Y=89.3595
C73	VDD3#97	VDD3	9.80959e-17	$X=40.2345 $Y=89.337
C74	VDD3#45	VDD3	9.80959e-17	$X=22.2345 $Y=89.337
C75	VDD3#55	VDD3	9.8833e-17	$X=25.9745 $Y=89.337
C76	VDD3#82	VDD3	9.89469e-17	$X=33.4545 $Y=89.337
C77	VDD3#92	VDD3	9.89517e-17	$X=37.1945 $Y=89.337
C78	VDD3	VDD3#118	1.02613e-16	$X=43.959 $Y=101.5815
C79	VDD3	VDD3#18	1.02613e-16	$X=18.515 $Y=101.5815
C80	VDD3#125	VDD3#15	1.07247e-16	$X=43.196 $Y=80.364
C81	VDD3#118	VDD3#12	1.07879e-16	$X=43.194 $Y=99.7055
C82	VDD3#18	VDD3#3	1.07879e-16	$X=19.2745 $Y=99.7055
C83	VDD3#25	VDD3#6	1.07879e-16	$X=19.2745 $Y=80.3455
C84	VDD3#141	VDD3	1.17258e-16	$X=12.109 $Y=74.5235
C85	VDD3#147	VDD3#146	1.17655e-16	$X=48.7955 $Y=56.198
C86	VDD3#23	VDD3	1.26949e-16	$X=18.495 $Y=89.337
C87	VDD3#123	VDD3	1.26949e-16	$X=43.974 $Y=89.337
C88	VDD3#168	VDD3#23	1.31238e-16	$X=18.586 $Y=89.3595
C89	VDD3#168	VDD3#123	1.31238e-16	$X=43.8945 $Y=89.3595
C90	VDD3#196	VDD3	1.36038e-16	$X=57.558 $Y=48.9545
C91	VDD3#207	VDD3#125	1.43179e-16	$X=44.585 $Y=82.2135
C92	VDD3#202	VDD3#25	1.43265e-16	$X=17.881 $Y=82.1925
C93	VDD3#8	VDD3	1.53645e-16	$X=38.7165 $Y=83.9145
C94	VDD3#196	VDD3#150	1.56754e-16	$X=61.2415 $Y=48.479
C95	VDD3#14	VDD3	1.5892e-16	$X=42.4545 $Y=83.9145
C96	VDD3#5	VDD3	1.5892e-16	$X=20.0275 $Y=83.9145
C97	VDD3#30	VDD3#40	1.7071e-16	$X=21.8845 $Y=108.6975
C98	VDD3#35	VDD3#45	1.7071e-16	$X=21.8845 $Y=89.3375
C99	VDD3#97	VDD3#109	1.7071e-16	$X=40.5845 $Y=89.3375
C100	VDD3#33	VDD3#43	1.77397e-16	$X=21.884 $Y=106.5875
C101	VDD3#38	VDD3#48	1.77397e-16	$X=21.884 $Y=87.2275
C102	VDD3#100	VDD3#112	1.77397e-16	$X=40.5845 $Y=87.2275
C103	VDD3#30	VDD3	1.84844e-16	$X=21.5345 $Y=108.6965
C104	VDD3#147	VDD3	1.85069e-16	$X=59.0295 $Y=66.764
C105	VDD3#104	VDD3	1.86255e-16	$X=40.9345 $Y=108.6965
C106	VDD3	VDD3#77	1.8789e-16	$X=33.4545 $Y=108.6965
C107	VDD3	VDD3#40	1.93745e-16	$X=22.2345 $Y=108.6965
C108	VDD3#67	VDD3	1.9547e-16	$X=29.7145 $Y=108.6965
C109	VDD3#50	VDD3	1.95707e-16	$X=25.9745 $Y=108.6965
C110	VDD3#87	VDD3	1.95755e-16	$X=37.1945 $Y=108.6965
C111	VDD3#106	VDD3#10	2.00158e-16	$X=41.376 $Y=102.0885
C112	VDD3#111	VDD3#14	2.00158e-16	$X=41.3775 $Y=82.71
C113	VDD3#99	VDD3#8	2.00158e-16	$X=39.791 $Y=82.71
C114	VDD3#94	VDD3#8	2.00158e-16	$X=37.636 $Y=82.7285
C115	VDD3#32	VDD3#1	2.00158e-16	$X=21.0925 $Y=102.0885
C116	VDD3#37	VDD3#5	2.00158e-16	$X=21.0925 $Y=82.7285
C117	VDD3	VDD3#1	2.11682e-16	$X=20.0275 $Y=103.2635
C118	VDD3	VDD3#10	2.11682e-16	$X=42.4545 $Y=103.2635
C119	VDD3#102	VDD3#9	2.13532e-16	$X=38.776 $Y=77.3945
C120	VDD3#28	VDD3#6	2.14026e-16	$X=19.9525 $Y=77.3945
C121	VDD3#21	VDD3#3	2.14718e-16	$X=19.9525 $Y=96.7545
C122	VDD3#121	VDD3#12	2.15161e-16	$X=42.516 $Y=96.7545
C123	VDD3#141	VDD3#145	2.17729e-16	$X=20.305 $Y=55.8245
C124	VDD3#114	VDD3#15	2.22384e-16	$X=42.3925 $Y=77.3945
C125	VDD3#9	VDD3	2.22572e-16	$X=38.715 $Y=78.5245
C126	VDD3#202	VDD3	2.24298e-16	$X=16.2405 $Y=82.0925
C127	VDD3#12	VDD3	2.24416e-16	$X=42.4545 $Y=97.8805
C128	VDD3#6	VDD3	2.31718e-16	$X=20.0195 $Y=78.5245
C129	VDD3#3	VDD3	2.32219e-16	$X=20.0195 $Y=97.8805
C130	VDD3#15	VDD3	2.40725e-16	$X=42.4545 $Y=78.5245
C131	VDD3#116	VDD3	2.58173e-16	$X=43.974 $Y=108.6965
C132	VDD3#16	VDD3	2.58173e-16	$X=18.495 $Y=108.6965
C133	VDD3#118	VDD3#10	2.64578e-16	$X=43.531 $Y=102.07
C134	VDD3#125	VDD3#14	2.64578e-16	$X=43.5325 $Y=82.7285
C135	VDD3#18	VDD3#1	2.64578e-16	$X=18.9375 $Y=102.07
C136	VDD3#25	VDD3#5	2.64578e-16	$X=18.9375 $Y=82.71
C137	VDD3#147	VDD3#131	2.71059e-16	$X=55.6715 $Y=81.404
C138	VDD3#207	VDD3	2.96394e-16	$X=46.242 $Y=82.0925
C139	VDD3#141	VDD3#144	3.03871e-16	$X=8.2355 $Y=67.3795
C140	VDD3#196	VDD3#146	4.22542e-16	$X=49.2845 $Y=52.8185
C141	VDD3#62	VDD3	5.60456e-16	$X=18.041 $Y=13.1495
C142	VDD3#144	VDD3	6.436e-16	$X=8.133 $Y=67.1775
C143	VDD3#32	VDD3#42	7.22644e-16	$X=21.8845 $Y=101.617
C144	VDD3#37	VDD3#47	7.22644e-16	$X=21.8845 $Y=82.257
C145	VDD3#99	VDD3#111	7.32513e-16	$X=40.584 $Y=82.2285
C146	VDD3#141	VDD3#149	8.02575e-16	$X=47.1815 $Y=72.914
C147	VDD3#136	VDD3	8.42145e-16	$X=45.374 $Y=23.5105
C148	VDD3#63	VDD3	8.47409e-16	$X=26.4615 $Y=16.4905
C149	VDD3#64	VDD3	8.82699e-16	$X=26.4615 $Y=23.5105
C150	VDD3#168	VDD3	1.0561e-15	$X=32.1585 $Y=92.568
C151	VDD3#141	VDD3#130	1.07067e-15	$X=22.419 $Y=74.575
C152	VDD3#137	VDD3	1.14092e-15	$X=52.8515 $Y=13.157
C153	VDD3#138	VDD3	1.15913e-15	$X=67.469 $Y=13.157
C154	VDD3#130	VDD3	1.29076e-15	$X=23.5365 $Y=74.578
C155	OUT1	GNDA	2.0235e-15	$X=72.9995 $Y=52.5815
C156	OUT2	GNDA	1.77004e-15	$X=74.4675 $Y=56.9315
C157	OUT3	GNDA	1.24748e-15	$X=76.714 $Y=63.7615
C158	VDD3	GNDA	6.46176e-14	$X=43.947 $Y=66.334
C159	net1	GNDA	2.47311e-16	$X=19.4565 $Y=42.574
C160	net17	GNDA	8.13975e-16	$X=23.757 $Y=103.275
C161	net24	GNDA	4.52417e-15	$X=21.3315 $Y=52.8505
C162	net30	GNDA	1.4728e-19	$X=32.3245 $Y=63.7435
C163	net23	GNDA	1.31491e-20	$X=34.5495 $Y=44.504
C164	net25	GNDA	2.56037e-15	$X=63.5625 $Y=21.2195
C165	net2	GNDA	1.71841e-15	$X=16.8045 $Y=43.564
C166	net13#30	GNDA	5.92146e-16	$X=70.802 $Y=18.5665
C167	net13#27	GNDA	5.74901e-16	$X=67.7625 $Y=18.5665
C168	net13#25	GNDA	5.74892e-16	$X=64.723 $Y=18.5665
C169	net13#23	GNDA	5.74892e-16	$X=61.683 $Y=18.5665
C170	net13#21	GNDA	5.74892e-16	$X=58.6435 $Y=18.5665
C171	net13#19	GNDA	5.74892e-16	$X=55.6035 $Y=18.5665
C172	net13#17	GNDA	5.74866e-16	$X=52.564 $Y=18.5665
C173	net13#9	GNDA	6.37627e-16	$X=49.5245 $Y=18.566
C174	net13#6	GNDA	4.89022e-16	$X=22.312 $Y=18.5665
C175	net13#2	GNDA	4.87158e-16	$X=19.2725 $Y=18.566
C176	net25#1	GNDA	5.32581e-16	$X=64.764 $Y=41.854
C177	VDD3#14	GNDA	3.092e-17	$X=42.455 $Y=83.917
C178	VDD3#8	GNDA	8.34726e-17	$X=38.7155 $Y=83.917
C179	net17#23	GNDA	8.14533e-16	$X=34.9755 $Y=83.917
C180	net24#14	GNDA	7.64295e-16	$X=33.816 $Y=62.419
C181	net17#17	GNDA	7.6198e-16	$X=31.236 $Y=83.917
C182	net17#11	GNDA	5.43934e-16	$X=27.4965 $Y=83.917
C183	net24#11	GNDA	4.96397e-16	$X=26.1015 $Y=62.419
C184	net17#5	GNDA	8.13975e-16	$X=23.757 $Y=83.917
C185	VDD3#5	GNDA	4.30876e-17	$X=20.017 $Y=83.917
C186	net1#7	GNDA	5.91337e-16	$X=26.7115 $Y=43.181
C187	net47#16	GNDA	1.53208e-15	$X=50.3915 $Y=115.666
C188	net18#30	GNDA	2.19868e-15	$X=17.778 $Y=111.826
C189	net18#33	GNDA	2.66152e-15	$X=18.7135 $Y=92.4665
C190	net13#53	GNDA	6.26016e-16	$X=64.1395 $Y=25.2845
C191	VDD3#147	GNDA	4.20096e-15	$X=59.054 $Y=66.747
C192	VDD3#134	GNDA	3.24296e-15	$X=60.786 $Y=30.3255
C193	net1#26	GNDA	3.28934e-16	$X=21.37 $Y=42.824
C194	VDD3#60	GNDA	4.93663e-15	$X=10.4115 $Y=27.201
C195	net13#16	GNDA	6.38692e-16	$X=67.763 $Y=23.986
C196	net13#14	GNDA	3.44576e-15	$X=56.2245 $Y=24.8525
C197	net13#11	GNDA	3.09805e-16	$X=52.564 $Y=23.9855
C198	net24#27	GNDA	3.86453e-16	$X=55.094 $Y=67.816
C199	net24#24	GNDA	4.30009e-16	$X=47.6695 $Y=67.816
C200	net24#21	GNDA	4.32725e-16	$X=44.6295 $Y=67.816
C201	VDD3#12	GNDA	8.34588e-17	$X=42.4545 $Y=97.884
C202	VDD3#15	GNDA	6.83698e-17	$X=42.4545 $Y=78.5245
C203	net1#17	GNDA	3.98083e-16	$X=39.0795 $Y=48.577
C204	net17#27	GNDA	4.75061e-16	$X=38.7145 $Y=97.884
C205	VDD3#9	GNDA	1.00126e-16	$X=38.7145 $Y=78.5245
C206	net24#18	GNDA	3.97687e-16	$X=36.8545 $Y=67.816
C207	net1#14	GNDA	3.94591e-16	$X=36.04 $Y=48.577
C208	net17#21	GNDA	4.47412e-16	$X=34.975 $Y=97.884
C209	net17#24	GNDA	4.39268e-16	$X=34.975 $Y=78.5245
C210	net24#15	GNDA	3.94258e-16	$X=33.815 $Y=67.816
C211	net17#15	GNDA	3.77494e-16	$X=31.235 $Y=97.884
C212	net17#18	GNDA	4.07522e-16	$X=31.235 $Y=78.5245
C213	net1#11	GNDA	3.40847e-16	$X=29.75 $Y=48.577
C214	net17#9	GNDA	4.58629e-16	$X=27.495 $Y=97.884
C215	net17#12	GNDA	3.38921e-16	$X=27.495 $Y=78.5245
C216	net1#8	GNDA	3.29663e-16	$X=26.71 $Y=48.577
C217	net24#12	GNDA	3.26078e-16	$X=26.1 $Y=67.816
C218	net17#3	GNDA	4.66397e-16	$X=23.755 $Y=97.884
C219	net17#6	GNDA	4.38766e-16	$X=23.755 $Y=78.5245
C220	net24#9	GNDA	3.29137e-16	$X=23.0605 $Y=67.816
C221	VDD3#3	GNDA	8.34621e-17	$X=20.0155 $Y=97.884
C222	VDD3#6	GNDA	8.42892e-17	$X=20.0155 $Y=78.5245
C223	net1#4	GNDA	4.80746e-15	$X=16.818 $Y=41.398
C224	net2#4	GNDA	2.58651e-15	$X=14.7905 $Y=47.8955
C225	net24#6	GNDA	3.98434e-16	$X=15.9505 $Y=67.816
C226	net24#3	GNDA	3.92993e-16	$X=12.9105 $Y=67.816
C227	OUT3#1	GNDA	2.33349e-15	$X=58.2925 $Y=63.744
C228	net47#6	GNDA	7.70685e-16	$X=53.584 $Y=63.7425
C229	net40#16	GNDA	2.38327e-18	$X=49.1595 $Y=63.7435
C230	OUT2#1	GNDA	3.32503e-18	$X=46.1495 $Y=63.7435
C231	VDD3#118	GNDA	4.12292e-17	$X=43.9595 $Y=101.5855
C232	VDD3#125	GNDA	2.26334e-17	$X=43.9595 $Y=82.255
C233	net40#11	GNDA	2.44786e-18	$X=43.1395 $Y=63.7435
C234	VDD3#106	GNDA	8.36114e-16	$X=40.9495 $Y=101.614
C235	VDD3#111	GNDA	4.48661e-17	$X=40.9495 $Y=82.2265
C236	VDD3#99	GNDA	1.05476e-16	$X=40.2195 $Y=82.2265
C237	VDD3#89	GNDA	1.06809e-15	$X=37.21 $Y=101.614
C238	VDD3#94	GNDA	7.88731e-16	$X=37.21 $Y=82.255
C239	net30#11	GNDA	6.55265e-19	$X=36.4645 $Y=82.598
C240	VDD3#79	GNDA	1.06809e-15	$X=33.47 $Y=101.614
C241	VDD3#84	GNDA	1.07002e-15	$X=33.47 $Y=82.255
C242	net17#77	GNDA	7.45753e-16	$X=32.74 $Y=101.614
C243	net18#16	GNDA	6.55265e-19	$X=32.7245 $Y=82.598
C244	VDD3#69	GNDA	1.06809e-15	$X=29.73 $Y=101.614
C245	VDD3#74	GNDA	1.07008e-15	$X=29.73 $Y=82.255
C246	net17#61	GNDA	7.22677e-16	$X=29 $Y=82.255
C247	net17#43	GNDA	3.12352e-18	$X=27.59 $Y=63.7435
C248	VDD3#52	GNDA	1.06809e-15	$X=25.99 $Y=101.614
C249	VDD3#57	GNDA	1.06937e-15	$X=25.99 $Y=82.255
C250	net24#54	GNDA	4.21422e-17	$X=24.5805 $Y=63.2285
C251	VDD3#42	GNDA	3.58299e-16	$X=22.2505 $Y=101.614
C252	VDD3#47	GNDA	4.07319e-16	$X=22.2505 $Y=82.255
C253	net17#28	GNDA	3.1318e-18	$X=21.57 $Y=63.7435
C254	VDD3#32	GNDA	1.13471e-16	$X=21.5205 $Y=101.614
C255	VDD3#37	GNDA	6.54317e-17	$X=21.5205 $Y=82.255
C256	VDD3#18	GNDA	4.12292e-17	$X=18.5105 $Y=101.5855
C257	VDD3#25	GNDA	1.48617e-18	$X=18.5105 $Y=82.2265
C258	net25#31	GNDA	3.60643e-16	$X=72.313 $Y=20.394
C259	net23#23	GNDA	1.09621e-15	$X=69.2825 $Y=19.8515
C260	net25#18	GNDA	5.46218e-16	$X=66.2435 $Y=19.875
C261	net23#19	GNDA	7.94274e-16	$X=63.2035 $Y=19.8755
C262	net25#14	GNDA	5.46201e-16	$X=60.164 $Y=19.875
C263	net23#15	GNDA	7.94274e-16	$X=57.124 $Y=19.8755
C264	net25#10	GNDA	5.46213e-16	$X=54.084 $Y=19.875
C265	net23#11	GNDA	7.94437e-16	$X=51.044 $Y=19.8755
C266	net25#3	GNDA	5.06249e-16	$X=48.0145 $Y=20.619
C267	net23#6	GNDA	2.965e-18	$X=40.5695 $Y=44.504
C268	net24#69	GNDA	1.93696e-18	$X=37.5595 $Y=44.504
C269	net13#45	GNDA	7.69814e-19	$X=31.2395 $Y=44.504
C270	net13#32	GNDA	7.32432e-16	$X=20.791 $Y=19.897
C271	net18#4	GNDA	1.04293e-15	$X=11.391 $Y=60.408
C272	net24#28	GNDA	2.55147e-16	$X=12.9095 $Y=69.714
C273	net1#21	GNDA	9.82893e-16	$X=14.431 $Y=59.768
C274	net24#34	GNDA	2.25978e-16	$X=15.9495 $Y=69.714
C275	net18#9	GNDA	6.79484e-16	$X=17.4705 $Y=60.408
C276	net2#10	GNDA	2.00185e-15	$X=9.8295 $Y=42.774
C277	net2#9	GNDA	7.1022e-16	$X=17.901 $Y=40.664
C278	VDD3#21	GNDA	1.68927e-16	$X=19.9445 $Y=96.599
C279	VDD3#16	GNDA	1.98902e-17	$X=18.4945 $Y=108.697
C280	VDD3#28	GNDA	1.91673e-16	$X=19.9445 $Y=77.239
C281	VDD3#23	GNDA	1.98902e-17	$X=18.4945 $Y=89.337
C282	VDD3#26	GNDA	3.5189e-17	$X=18.4945 $Y=87.227
C283	net24#44	GNDA	6.74466e-16	$X=12.3945 $Y=46.794
C284	net24#41	GNDA	1.58705e-15	$X=20.8615 $Y=48.712
C285	VDD3#30	GNDA	1.98902e-17	$X=21.5345 $Y=108.697
C286	VDD3#33	GNDA	3.37511e-17	$X=21.5345 $Y=106.587
C287	VDD3#35	GNDA	1.98902e-17	$X=21.5345 $Y=89.337
C288	VDD3#38	GNDA	3.37511e-17	$X=21.5345 $Y=87.227
C289	net17#31	GNDA	1.17641e-15	$X=21.5405 $Y=59.698
C290	VDD3#40	GNDA	1.98902e-17	$X=22.2345 $Y=108.697
C291	VDD3#43	GNDA	8.57015e-17	$X=22.2345 $Y=106.587
C292	VDD3#45	GNDA	1.98902e-17	$X=22.2345 $Y=89.337
C293	VDD3#48	GNDA	1.28364e-16	$X=22.2345 $Y=87.227
C294	net13#36	GNDA	1.87515e-17	$X=18.0745 $Y=25.2845
C295	net13#39	GNDA	1.52245e-17	$X=23.5045 $Y=25.2845
C296	net13#37	GNDA	4.82202e-15	$X=22.3685 $Y=28.1755
C297	net17#33	GNDA	3.73227e-16	$X=23.7545 $Y=92.356
C298	net17#35	GNDA	4.27774e-16	$X=23.7545 $Y=95.3965
C299	net17#38	GNDA	1.73688e-16	$X=23.7545 $Y=76.349
C300	net13#43	GNDA	1.30159e-15	$X=25.1905 $Y=40.774
C301	net40#4	GNDA	2.31339e-15	$X=25.276 $Y=108.169
C302	net40#9	GNDA	2.33946e-15	$X=25.276 $Y=88.8105
C303	VDD3#50	GNDA	1.99499e-16	$X=25.9745 $Y=108.697
C304	VDD3#53	GNDA	2.72773e-16	$X=25.9745 $Y=106.587
C305	VDD3#55	GNDA	1.99499e-16	$X=25.9745 $Y=89.337
C306	VDD3#58	GNDA	2.72773e-16	$X=25.9745 $Y=87.227
C307	VDD3#62	GNDA	3.43269e-16	$X=18.039 $Y=13.1445
C308	VDD3#63	GNDA	4.54202e-16	$X=26.46 $Y=16.484
C309	VDD3#64	GNDA	5.76061e-16	$X=26.46 $Y=23.5045
C310	net24#47	GNDA	4.93116e-16	$X=25.34 $Y=69.1035
C311	net24#57	GNDA	1.67329e-16	$X=24.5795 $Y=57.284
C312	net1#29	GNDA	1.92901e-16	$X=26.7095 $Y=50.244
C313	net17#46	GNDA	8.62775e-16	$X=27.6205 $Y=59.698
C314	net1#38	GNDA	2.3681e-16	$X=28.23 $Y=41.414
C315	net17#48	GNDA	3.45584e-16	$X=27.4945 $Y=92.356
C316	net17#50	GNDA	3.59369e-16	$X=27.4945 $Y=95.3965
C317	net17#53	GNDA	1.51976e-16	$X=27.4945 $Y=76.349
C318	net18#14	GNDA	2.0313e-15	$X=29.0155 $Y=106.8895
C319	VDD3#67	GNDA	1.99422e-16	$X=29.7145 $Y=108.697
C320	VDD3#70	GNDA	2.72773e-16	$X=29.7145 $Y=106.587
C321	VDD3#72	GNDA	2.07474e-16	$X=29.7145 $Y=89.337
C322	VDD3#75	GNDA	2.72773e-16	$X=29.7145 $Y=87.227
C323	net17#58	GNDA	3.83975e-16	$X=29.0145 $Y=90.317
C324	net17#62	GNDA	3.9025e-16	$X=29.0145 $Y=87.747
C325	net1#40	GNDA	1.95265e-16	$X=29.7495 $Y=50.244
C326	net13#48	GNDA	1.09758e-15	$X=31.27 $Y=40.774
C327	net17#64	GNDA	3.80396e-16	$X=31.2345 $Y=92.356
C328	net17#66	GNDA	3.59337e-16	$X=31.2345 $Y=95.3965
C329	net17#69	GNDA	1.51976e-16	$X=31.2345 $Y=76.349
C330	net30#4	GNDA	1.16606e-15	$X=32.295 $Y=59.698
C331	net18#19	GNDA	2.07408e-15	$X=32.755 $Y=87.531
C332	VDD3#77	GNDA	2.07474e-16	$X=33.4545 $Y=108.697
C333	VDD3#80	GNDA	2.72773e-16	$X=33.4545 $Y=106.587
C334	VDD3#82	GNDA	1.99422e-16	$X=33.4545 $Y=89.337
C335	VDD3#85	GNDA	2.72773e-16	$X=33.4545 $Y=87.227
C336	net17#74	GNDA	3.96837e-16	$X=32.7545 $Y=109.677
C337	net17#78	GNDA	3.9025e-16	$X=32.7545 $Y=107.107
C338	net23#4	GNDA	1.11862e-15	$X=34.52 $Y=40.774
C339	net24#63	GNDA	2.37256e-16	$X=33.8145 $Y=69.714
C340	OUT1#4	GNDA	8.22112e-16	$X=35.335 $Y=60.338
C341	net17#80	GNDA	3.8417e-16	$X=34.9745 $Y=92.356
C342	net17#82	GNDA	3.65615e-16	$X=34.9745 $Y=95.3965
C343	net17#85	GNDA	1.71095e-16	$X=34.9745 $Y=76.349
C344	net30#9	GNDA	2.18401e-15	$X=36.495 $Y=107.5295
C345	net30#14	GNDA	2.21172e-15	$X=36.495 $Y=88.1705
C346	net1#46	GNDA	1.74786e-16	$X=36.0395 $Y=50.244
C347	VDD3#87	GNDA	1.99499e-16	$X=37.1945 $Y=108.697
C348	VDD3#90	GNDA	2.72773e-16	$X=37.1945 $Y=106.587
C349	VDD3#92	GNDA	1.99499e-16	$X=37.1945 $Y=89.337
C350	VDD3#95	GNDA	2.15057e-16	$X=37.1945 $Y=87.227
C351	net24#72	GNDA	7.65223e-16	$X=37.56 $Y=41.414
C352	net24#74	GNDA	2.27111e-16	$X=36.8545 $Y=69.714
C353	net30#19	GNDA	8.60284e-16	$X=38.375 $Y=59.698
C354	net17#90	GNDA	3.57988e-16	$X=38.7145 $Y=92.356
C355	net17#92	GNDA	4.09791e-16	$X=38.7145 $Y=95.3965
C356	net1#52	GNDA	1.93323e-16	$X=39.0795 $Y=50.244
C357	VDD3#102	GNDA	1.71845e-16	$X=38.7845 $Y=77.239
C358	VDD3#97	GNDA	1.98902e-17	$X=40.2345 $Y=89.337
C359	VDD3#100	GNDA	7.06487e-17	$X=40.2345 $Y=87.227
C360	net47#4	GNDA	2.52708e-15	$X=40.235 $Y=108.8085
C361	net23#9	GNDA	1.22971e-15	$X=40.5995 $Y=40.774
C362	VDD3#104	GNDA	1.99499e-16	$X=40.9345 $Y=108.697
C363	VDD3#107	GNDA	2.18655e-16	$X=40.9345 $Y=106.587
C364	net40#14	GNDA	1.14701e-15	$X=43.1095 $Y=59.698
C365	VDD3#114	GNDA	1.6985e-16	$X=42.3845 $Y=77.239
C366	VDD3#109	GNDA	1.98902e-17	$X=40.9345 $Y=89.337
C367	VDD3#112	GNDA	3.71516e-17	$X=40.9345 $Y=87.227
C368	VDD3#121	GNDA	1.68356e-16	$X=42.5245 $Y=96.599
C369	VDD3#116	GNDA	1.98902e-17	$X=43.9745 $Y=108.697
C370	VDD3#123	GNDA	1.98902e-17	$X=43.9745 $Y=89.337
C371	VDD3#126	GNDA	3.5189e-17	$X=43.9745 $Y=87.227
C372	net24#80	GNDA	2.49849e-16	$X=44.6295 $Y=69.714
C373	OUT2#4	GNDA	8.44188e-16	$X=46.1495 $Y=60.338
C374	net25#9	GNDA	1.95052e-16	$X=47.1445 $Y=22.954
C375	net25#7	GNDA	3.60125e-16	$X=48.0045 $Y=17.1365
C376	net24#86	GNDA	2.45095e-16	$X=47.6695 $Y=69.714
C377	net40#19	GNDA	9.35794e-16	$X=49.1895 $Y=59.698
C378	VDD3#133	GNDA	7.62393e-16	$X=23.53 $Y=116.8765
C379	VDD3#130	GNDA	1.2177e-15	$X=23.5305 $Y=74.5765
C380	VDD3#131	GNDA	1.46666e-15	$X=54.824 $Y=85.065
C381	VDD3#132	GNDA	1.26583e-15	$X=54.824 $Y=106.384
C382	VDD3#129	GNDA	2.37877e-16	$X=12.9855 $Y=101.6025
C383	net24#92	GNDA	2.68792e-16	$X=55.094 $Y=69.689
C384	net25#22	GNDA	1.3802e-15	$X=64.808 $Y=40.375
C385	net25#29	GNDA	2.84253e-16	$X=72.324 $Y=17.126
C386	net25#28	GNDA	1.29088e-16	$X=73.184 $Y=22.955
C387	net25#34	GNDA	4.63728e-17	$X=72.324 $Y=24.1895
C388	VDD3#137	GNDA	9.25587e-16	$X=52.8535 $Y=13.145
C389	VDD3#136	GNDA	4.60096e-16	$X=45.3745 $Y=23.505
C390	VDD3#138	GNDA	1.01977e-15	$X=67.4735 $Y=13.145
C391	VDD3#145	GNDA	1.43833e-15	$X=21.1015 $Y=54.033
C392	VDD3#144	GNDA	1.35634e-17	$X=8.13 $Y=67.1765
C393	VDD3#146	GNDA	1.18115e-15	$X=46.693 $Y=54.033
C394	VDD3#150	GNDA	6.78417e-16	$X=62.0535 $Y=48.3785
C395	VDD3#151	GNDA	8.95431e-16	$X=80.252 $Y=59.968
C396	VDD3#152	GNDA	2.86304e-16	$X=80.252 $Y=98.6375
C397	VDD3#141	GNDA	8.31813e-15	$X=12.0205 $Y=74.511
C398	VDD3#149	GNDA	2.15127e-15	$X=60.8515 $Y=72.2755
C399	net24#96	GNDA	8.82361e-17	$X=19.4445 $Y=51.779
C400	net18#21	GNDA	5.79972e-15	$X=18.019 $Y=68.0265
C401	net2#24	GNDA	9.75097e-17	$X=8.1245 $Y=47.479
C402	net24#100	GNDA	1.28968e-15	$X=24.5805 $Y=56.9335
C403	net17#95	GNDA	2.11744e-15	$X=32.3245 $Y=69.7445
C404	net17#97	GNDA	2.63073e-15	$X=29.9715 $Y=59.263
C405	OUT1#6	GNDA	5.31209e-15	$X=38.24 $Y=55.841
C406	net23#27	GNDA	2.18607e-15	$X=36.6355 $Y=34.308
C407	net24#104	GNDA	1.8149e-15	$X=37.3375 $Y=38.324
C408	net1#64	GNDA	1.49283e-15	$X=21.991 $Y=50.59
C409	net1#66	GNDA	2.03231e-15	$X=14.322 $Y=54.668
C410	net1#58	GNDA	7.05521e-16	$X=37.0125 $Y=50.604
C411	net1#61	GNDA	7.69648e-16	$X=28.777 $Y=50.604
C412	net30#21	GNDA	8.32373e-15	$X=42.914 $Y=66.7255
C413	OUT2#6	GNDA	3.99897e-15	$X=50.5955 $Y=56.93
C414	net23#32	GNDA	5.99695e-17	$X=51.044 $Y=14.9295
C415	net23#35	GNDA	6.24911e-17	$X=51.044 $Y=24.8195
C416	net40#21	GNDA	6.67112e-15	$X=51.4585 $Y=66.851
C417	net47#10	GNDA	2.12679e-17	$X=53.574 $Y=58.799
C418	net47#13	GNDA	1.50619e-17	$X=53.574 $Y=68.689
C419	net47#14	GNDA	5.20814e-15	$X=26.717 $Y=115.6585
C420	net47#15	GNDA	1.34519e-15	$X=43.2015 $Y=115.6665
C421	net40#31	GNDA	3.0514e-15	$X=19.2355 $Y=114.385
C422	net40#28	GNDA	4.25383e-15	$X=46.2075 $Y=114.383
C423	net40#30	GNDA	3.39708e-15	$X=31.538 $Y=114.384
C424	net30#31	GNDA	5.8896e-15	$X=24.8465 $Y=113.1005
C425	net30#28	GNDA	3.00986e-15	$X=48.5675 $Y=113.105
C426	net30#30	GNDA	1.71276e-15	$X=39.507 $Y=113.1065
C427	net18#28	GNDA	6.54834e-15	$X=41.761 $Y=111.82
C428	net18#29	GNDA	1.87722e-15	$X=25.633 $Y=111.8265
C429	net17#105	GNDA	4.82851e-15	$X=22.586 $Y=110.5425
C430	net17#102	GNDA	3.64107e-15	$X=47.3825 $Y=110.544
C431	net17#104	GNDA	2.27825e-15	$X=36.0625 $Y=110.546
C432	net40#35	GNDA	2.42275e-15	$X=19.2355 $Y=95.026
C433	net40#32	GNDA	3.29548e-15	$X=46.2075 $Y=95.0245
C434	net40#34	GNDA	2.70658e-15	$X=31.538 $Y=95.025
C435	net30#35	GNDA	6.04333e-15	$X=24.8465 $Y=93.7425
C436	net30#32	GNDA	3.01325e-15	$X=48.5675 $Y=93.746
C437	net30#34	GNDA	1.77845e-15	$X=39.507 $Y=93.747
C438	net18#31	GNDA	5.71209e-15	$X=43.6305 $Y=92.4635
C439	net18#32	GNDA	2.41908e-15	$X=28.4385 $Y=92.4665
C440	net17#114	GNDA	2.72501e-15	$X=18.6055 $Y=91.1865
C441	net17#106	GNDA	3.00427e-15	$X=48.6125 $Y=91.186
C442	net17#108	GNDA	4.83959e-15	$X=33.3135 $Y=91.184
C443	VDD3#168	GNDA	1.00645e-14	$X=32.134 $Y=92.6045
C444	net17#121	GNDA	1.46588e-15	$X=18.6055 $Y=75.7875
C445	net17#115	GNDA	1.79473e-15	$X=47.6775 $Y=75.7865
C446	net17#117	GNDA	1.25682e-15	$X=32.3785 $Y=75.7855
C447	net24#108	GNDA	9.61708e-16	$X=14.827 $Y=70.3035
C448	net24#111	GNDA	9.64134e-16	$X=24.7305 $Y=70.3035
C449	net24#113	GNDA	1.14846e-15	$X=35.349 $Y=70.3035
C450	net24#115	GNDA	1.29474e-15	$X=46.1915 $Y=70.3035
C451	net24#117	GNDA	4.74001e-16	$X=53.6175 $Y=70.304
C452	OUT3#5	GNDA	2.18998e-17	$X=56.614 $Y=58.799
C453	OUT3#8	GNDA	8.91455e-18	$X=56.614 $Y=68.689
C454	net23#36	GNDA	5.93583e-17	$X=57.124 $Y=14.9295
C455	net23#39	GNDA	6.2503e-17	$X=57.124 $Y=24.8195
C456	VDD3#196	GNDA	2.47658e-15	$X=57.573 $Y=48.927
C457	net23#40	GNDA	5.93583e-17	$X=63.204 $Y=14.9295
C458	net23#43	GNDA	6.2503e-17	$X=63.204 $Y=24.8195
C459	net23#44	GNDA	5.99695e-17	$X=69.284 $Y=14.9295
C460	net23#47	GNDA	6.24033e-17	$X=69.284 $Y=24.8195
C461	net13#61	GNDA	4.79329e-17	$X=18.6195 $Y=25.2845
C462	net13#56	GNDA	1.40618e-16	$X=70.727 $Y=25.2845
C463	net25#37	GNDA	3.57449e-15	$X=63.202 $Y=14.138
C464	net25#44	GNDA	1.11805e-15	$X=74.033 $Y=24.975
C465	net25#45	GNDA	1.39355e-15	$X=64.8535 $Y=31.4315
C466	net25#55	GNDA	7.01858e-17	$X=48.0045 $Y=24.824
C467	net25#54	GNDA	5.72971e-16	$X=54.084 $Y=19.8095
C468	net25#52	GNDA	5.72971e-16	$X=60.164 $Y=19.8095
C469	net25#50	GNDA	5.70734e-16	$X=66.244 $Y=19.8095
C470	net24#1	GNDA	7.84894e-16	$X=12.913 $Y=62.419
C471	net24#4	GNDA	7.8279e-16	$X=15.9525 $Y=62.419
C472	net2#5	GNDA	4.68651e-17	$X=10.171 $Y=48.704
C473	net2#1	GNDA	4.20937e-16	$X=19.4505 $Y=48.704
C474	net1#5	GNDA	1.81434e-16	$X=10.171 $Y=42.574
C475	VDD3#1	GNDA	4.30876e-17	$X=20.017 $Y=103.275
C476	net13#3	GNDA	5.63222e-16	$X=20.7915 $Y=25.285
C477	net24#7	GNDA	4.97497e-16	$X=23.062 $Y=62.419
C478	net17#7	GNDA	8.01807e-16	$X=27.4965 $Y=103.275
C479	net1#9	GNDA	5.05113e-16	$X=29.7515 $Y=43.181
C480	net17#13	GNDA	5.43934e-16	$X=31.236 $Y=103.275
C481	net17#19	GNDA	7.6198e-16	$X=34.9755 $Y=103.275
C482	net1#12	GNDA	7.9187e-16	$X=36.0405 $Y=43.181
C483	net24#16	GNDA	7.48249e-16	$X=36.8555 $Y=62.419
C484	net17#25	GNDA	8.13961e-16	$X=38.7155 $Y=103.275
C485	net1#15	GNDA	8.81473e-16	$X=39.0805 $Y=43.181
C486	VDD3#10	GNDA	5.19807e-17	$X=42.455 $Y=103.275
C487	net24#19	GNDA	7.64295e-16	$X=44.63 $Y=62.419
C488	net24#22	GNDA	7.68237e-16	$X=47.6695 $Y=62.419
C489	net24#25	GNDA	6.7054e-16	$X=55.094 $Y=62.419
C490	net13#10	GNDA	3.33735e-16	$X=49.5245 $Y=23.985
C491	net13#12	GNDA	3.08829e-16	$X=55.604 $Y=23.9855
C492	net13#13	GNDA	3.09672e-16	$X=58.644 $Y=23.9855
C493	net13#15	GNDA	3.09668e-16	$X=64.7235 $Y=23.9855
C494	VDD3#202	GNDA	2.10664e-15	$X=16.228 $Y=82.094
C495	net18#34	GNDA	3.05494e-15	$X=14.448 $Y=109.152
C496	net18#36	GNDA	4.00586e-15	$X=14.4495 $Y=92.56
C497	net24#126	GNDA	3.36064e-16	$X=33.045 $Y=44.209
C498	VDD3#207	GNDA	2.04907e-15	$X=46.2445 $Y=82.094
C499	net17#122	GNDA	4.32741e-15	$X=48.0245 $Y=108.5115
C500	net17#124	GNDA	4.78944e-15	$X=48.0245 $Y=92.1725
C501	net17#125	GNDA	4.36925e-15	$X=48.0245 $Y=77.928
C502	net30#36	GNDA	3.63013e-15	$X=49.8045 $Y=109.7925
C503	net30#38	GNDA	5.68173e-15	$X=49.8045 $Y=93.0385
C504	net40#38	GNDA	6.55931e-15	$X=51.584 $Y=92.6695
C505	net40#39	GNDA	3.30345e-15	$X=51.584 $Y=110.433
C506	net47#21	GNDA	7.03846e-16	$X=53.424 $Y=63.9395
C507	net47#17	GNDA	4.61819e-15	$X=53.3635 $Y=104.3675
C508	net47#19	GNDA	4.76162e-15	$X=53.4235 $Y=80.8355
C509	net23#54	GNDA	1.67061e-15	$X=35.7105 $Y=19.618
C510	net23#50	GNDA	3.10584e-15	$X=60.163 $Y=14.137
C511	net23#62	GNDA	3.37077e-16	$X=51.044 $Y=19.8095
C512	net23#60	GNDA	3.46484e-16	$X=57.124 $Y=19.8095
C513	net23#58	GNDA	3.4645e-16	$X=63.204 $Y=19.8095
C514	net23#48	GNDA	3.07687e-17	$X=69.2845 $Y=24.805
C515	OUT3#11	GNDA	1.31359e-16	$X=56.614 $Y=59.8415
C516	OUT3#12	GNDA	1.14925e-16	$X=56.614 $Y=67.656
*
*
.ENDS constant_gm
*
