*
*
*
*                       LINUX           Mon Aug 26 08:58:29 2024
*
*
*
*  PROGRAM  advgen
*
*  Name           : advgen - Quantus - (64-bit)
*  Version        : 23.1.1-p051
*  Build Date     : Thu Feb 15 21:11:17 PST 2024
*
*  HSPICE LIBRARY
*
* GLOBAL_TEMPERATURE 27
*  OPERATING_TEMPERATURE 27
*  QRC_TECH_DIR /pkg/xfab2/XKIT/xh018/cadence/v9_0/QRC_pvs/v9_0_1/XH018_1143/QRC-Typ 
*
*!LENGTH_UNITS METERS
*
*
*
*
*       SUBCIRCUIT DEFINITIONS
*
.SUBCKT ped D G S SB
.ENDS
*
.SUBCKT nedia D G S SB
.ENDS
*

*
.SUBCKT hvswitch8 CUR_IN DOWN GNDD GNDHV OUT UP VDD3 VDDHV VSUBHV
*
*
*  caps2d version: 10
*
*       SUBCIRCUIT CALLS
*
XMM4 D4 UPN GNDHV VSUBHV nedia
+ w=2e-05 l=1.25e-06 adio=7.56916e-10 pdio=0.00010535 extlay=1
XMM2 GATEN DOWNN GNDHV VSUBHV nedia
+ w=2e-05 l=1.25e-06 adio=7.56916e-10 pdio=0.00010535 extlay=1
XMM1 OUT GATEP VDDHV VSUBHV ped
+ w=5e-05 l=9.4e-07 ad=2.19714e-10 pd=8.94366e-05 adio=4.2498e-10
+ pdio=2.57015e-05 extlay=1
XMM1@1 OUT GATEP VDDHV VSUBHV ped
+ w=5e-05 l=9.4e-07 ad=2.19714e-10 pd=8.94366e-05 adio=4.2498e-10
+ pdio=2.57015e-05 extlay=1
XMM1@2 OUT GATEP VDDHV VSUBHV ped
+ w=5e-05 l=9.4e-07 ad=2.19714e-10 pd=8.94366e-05 adio=4.2498e-10
+ pdio=2.57015e-05 extlay=1
XMM1@3 OUT GATEP VDDHV VSUBHV ped
+ w=5e-05 l=9.4e-07 ad=2.19714e-10 pd=8.94366e-05 adio=4.2498e-10
+ pdio=2.57015e-05 extlay=1
XMM1@4 OUT GATEP VDDHV VSUBHV ped
+ w=5e-05 l=9.4e-07 ad=2.19714e-10 pd=8.94366e-05 adio=4.2498e-10
+ pdio=2.57015e-05 extlay=1
XMM1@5 OUT GATEP VDDHV VSUBHV ped
+ w=5e-05 l=9.4e-07 ad=2.19714e-10 pd=8.94366e-05 adio=4.2498e-10
+ pdio=2.57015e-05 extlay=1
XMM1@6 OUT GATEP VDDHV VSUBHV ped
+ w=5e-05 l=9.4e-07 ad=2.19714e-10 pd=8.94366e-05 adio=4.2498e-10
+ pdio=2.57015e-05 extlay=1
XMM1@7 OUT GATEP VDDHV VSUBHV ped
+ w=5e-05 l=9.4e-07 ad=2.19714e-10 pd=8.94366e-05 adio=4.2498e-10
+ pdio=2.57015e-05 extlay=1
XMM1@8 OUT GATEP VDDHV VSUBHV ped
+ w=5e-05 l=9.4e-07 ad=2.19714e-10 pd=8.94366e-05 adio=4.2498e-10
+ pdio=2.57015e-05 extlay=1
XMM1@9 OUT GATEP VDDHV VSUBHV ped
+ w=5e-05 l=9.4e-07 ad=2.19714e-10 pd=8.94366e-05 adio=4.2498e-10
+ pdio=2.57015e-05 extlay=1
XMM1@10 OUT GATEP VDDHV VSUBHV ped
+ w=5e-05 l=9.4e-07 ad=2.19714e-10 pd=8.94366e-05 adio=4.2498e-10
+ pdio=2.57015e-05 extlay=1
XMM1@11 OUT GATEP VDDHV VSUBHV ped
+ w=5e-05 l=9.4e-07 ad=2.19714e-10 pd=8.94366e-05 adio=4.2498e-10
+ pdio=2.57015e-05 extlay=1
XMM0 OUT GATEN CUR_IN VSUBHV nedia
+ w=5e-05 l=1.25e-06 adio=6.71697e-10 pdio=3.30958e-05 extlay=1
XMM0@1 OUT GATEN CUR_IN VSUBHV nedia
+ w=5e-05 l=1.25e-06 adio=6.71697e-10 pdio=3.30958e-05 extlay=1
XMM0@2 OUT GATEN CUR_IN VSUBHV nedia
+ w=5e-05 l=1.25e-06 adio=6.71697e-10 pdio=3.30958e-05 extlay=1
XMM0@3 OUT GATEN CUR_IN VSUBHV nedia
+ w=5e-05 l=1.25e-06 adio=6.71697e-10 pdio=3.30958e-05 extlay=1
XMM0@4 OUT GATEN CUR_IN VSUBHV nedia
+ w=5e-05 l=1.25e-06 adio=6.71697e-10 pdio=3.30958e-05 extlay=1
XMM0@5 OUT GATEN CUR_IN VSUBHV nedia
+ w=5e-05 l=1.25e-06 adio=6.71697e-10 pdio=3.30958e-05 extlay=1
XMM0@6 OUT GATEN CUR_IN VSUBHV nedia
+ w=5e-05 l=1.25e-06 adio=6.71697e-10 pdio=3.30958e-05 extlay=1
XMM0@7 OUT GATEN CUR_IN VSUBHV nedia
+ w=5e-05 l=1.25e-06 adio=6.71697e-10 pdio=3.30958e-05 extlay=1
XMM0@8 OUT GATEN CUR_IN VSUBHV nedia
+ w=5e-05 l=1.25e-06 adio=6.71697e-10 pdio=3.30958e-05 extlay=1
XMM0@9 OUT GATEN CUR_IN VSUBHV nedia
+ w=5e-05 l=1.25e-06 adio=6.71697e-10 pdio=3.30958e-05 extlay=1
XMM0@10 OUT GATEN CUR_IN VSUBHV nedia
+ w=5e-05 l=1.25e-06 adio=6.71697e-10 pdio=3.30958e-05 extlay=1
XMM0@11 OUT GATEN CUR_IN VSUBHV nedia
+ w=5e-05 l=1.25e-06 adio=6.71697e-10 pdio=3.30958e-05 extlay=1
*
*       TRANSISTOR CARDS
*
*
MMM8	UPN	net5	GNDD	VSUBHV	ne3	L=3.5e-07	W=2.2e-07
+ AD=1.984e-13	AS=1.984e-13	PD=1.88e-06	PS=1.88e-06
+ NRD=0.804735	NRS=0.804735
MMM5	net5	UP	GNDD	VSUBHV	ne3	L=3.5e-07	W=2.2e-07
+ AD=1.984e-13	AS=1.984e-13	PD=1.88e-06	PS=1.88e-06
+ NRD=0.804735	NRS=0.804735
MMM3	DOWNN	DOWN	GNDD	VSUBHV	ne3	L=3.5e-07	W=2.2e-07
+ AD=1.984e-13	AS=1.984e-13	PD=1.88e-06	PS=1.88e-06
+ NRD=0.804735	NRS=0.804735
MMM7	UPN	net5	VDD3	VDD3	pe3	L=3e-07	W=4.4e-07
+ AD=2.112e-13	AS=2.112e-13	PD=1.84e-06	PS=1.84e-06
+ NRD=0.39754	NRS=0.39754
MMM6	net5	UP	VDD3	VDD3	pe3	L=3e-07	W=4.4e-07
+ AD=2.112e-13	AS=2.112e-13	PD=1.84e-06	PS=1.84e-06
+ NRD=0.39754	NRS=0.39754
MMM11	DOWNN	DOWN	VDD3	VDD3	pe3	L=3e-07	W=4.4e-07
+ AD=2.112e-13	AS=2.112e-13	PD=1.84e-06	PS=1.84e-06
+ NRD=0.39754	NRS=0.39754
*
*
*       RESISTOR AND CAP/DIODE CARDS
*
RRR2	D4	GATEP	rpp1k1_3 	L=0.0002537	W=2e-06
+ $SUB=VSUBHV 
RRR0	GATEN	VDDHV	rpp1k1_3 	L=0.0002537	W=2e-06
+ $SUB=VSUBHV 
RRR1	GATEP	VDDHV	rpp1k1_3 	L=0.0002029	W=2e-06
+ $SUB=VSUBHV 
RRR3	GNDHV	GATEN	rpp1k1_3 	L=0.0002029	W=2e-06
+ $SUB=VSUBHV 
*
*       CAP/DIODE CARDS
*
*
CCC2	GNDHV	GATEN	csf4a 	0 	area=6.3936e-11 perimeter=3.372e-05  
CCC2@1	GNDHV	GATEN	csf4a 	0 	area=6.3936e-11 perimeter=3.372e-05  
CCC2@2	GNDHV	GATEN	csf4a 	0 	area=6.3936e-11 perimeter=3.372e-05  
CCC2@3	GNDHV	GATEN	csf4a 	0 	area=6.3936e-11 perimeter=3.372e-05  
CCC2@4	GNDHV	GATEN	csf4a 	0 	area=6.3936e-11 perimeter=3.372e-05  
CCC2@5	GNDHV	GATEN	csf4a 	0 	area=6.3936e-11 perimeter=3.372e-05  
CCC2@6	GNDHV	GATEN	csf4a 	0 	area=6.3936e-11 perimeter=3.372e-05  
CCC2@7	GNDHV	GATEN	csf4a 	0 	area=6.3936e-11 perimeter=3.372e-05  
CCC2@8	GNDHV	GATEN	csf4a 	0 	area=6.3936e-11 perimeter=3.372e-05  
CCC2@9	GNDHV	GATEN	csf4a 	0 	area=6.3936e-11 perimeter=3.372e-05  
CCC5	VDDHV	OUT	csf4a 	0 	area=6.3936e-11 perimeter=3.372e-05  
CCC5@1	VDDHV	OUT	csf4a 	0 	area=6.3936e-11 perimeter=3.372e-05  
CCC5@2	VDDHV	OUT	csf4a 	0 	area=6.3936e-11 perimeter=3.372e-05  
CCC5@3	VDDHV	OUT	csf4a 	0 	area=6.3936e-11 perimeter=3.372e-05  
CCC2@10	GNDHV	GATEN	csf4a 	0 	area=6.3936e-11 perimeter=3.372e-05  
CCC2@11	GNDHV	GATEN	csf4a 	0 	area=6.3936e-11 perimeter=3.372e-05  
CCC2@12	GNDHV	GATEN	csf4a 	0 	area=6.3936e-11 perimeter=3.372e-05  
CCC2@13	GNDHV	GATEN	csf4a 	0 	area=6.3936e-11 perimeter=3.372e-05  
CCC2@14	GNDHV	GATEN	csf4a 	0 	area=6.3936e-11 perimeter=3.372e-05  
CCC2@15	GNDHV	GATEN	csf4a 	0 	area=6.3936e-11 perimeter=3.372e-05  
CCC2@16	GNDHV	GATEN	csf4a 	0 	area=6.3936e-11 perimeter=3.372e-05  
CCC2@17	GNDHV	GATEN	csf4a 	0 	area=6.3936e-11 perimeter=3.372e-05  
CCC2@18	GNDHV	GATEN	csf4a 	0 	area=6.3936e-11 perimeter=3.372e-05  
CCC2@19	GNDHV	GATEN	csf4a 	0 	area=6.3936e-11 perimeter=3.372e-05  
CCC5@4	VDDHV	OUT	csf4a 	0 	area=6.3936e-11 perimeter=3.372e-05  
CCC5@5	VDDHV	OUT	csf4a 	0 	area=6.3936e-11 perimeter=3.372e-05  
CCC5@6	VDDHV	OUT	csf4a 	0 	area=6.3936e-11 perimeter=3.372e-05  
CCC5@7	VDDHV	OUT	csf4a 	0 	area=6.3936e-11 perimeter=3.372e-05  
CCC2@20	GNDHV	GATEN	csf4a 	0 	area=6.3936e-11 perimeter=3.372e-05  
CCC2@21	GNDHV	GATEN	csf4a 	0 	area=6.3936e-11 perimeter=3.372e-05  
CCC2@22	GNDHV	GATEN	csf4a 	0 	area=6.3936e-11 perimeter=3.372e-05  
CCC2@23	GNDHV	GATEN	csf4a 	0 	area=6.3936e-11 perimeter=3.372e-05  
CCC2@24	GNDHV	GATEN	csf4a 	0 	area=6.3936e-11 perimeter=3.372e-05  
CCC2@25	GNDHV	GATEN	csf4a 	0 	area=6.3936e-11 perimeter=3.372e-05  
CCC2@26	GNDHV	GATEN	csf4a 	0 	area=6.3936e-11 perimeter=3.372e-05  
CCC2@27	GNDHV	GATEN	csf4a 	0 	area=6.3936e-11 perimeter=3.372e-05  
CCC2@28	GNDHV	GATEN	csf4a 	0 	area=6.3936e-11 perimeter=3.372e-05  
CCC2@29	GNDHV	GATEN	csf4a 	0 	area=6.3936e-11 perimeter=3.372e-05  
CCC5@8	VDDHV	OUT	csf4a 	0 	area=6.3936e-11 perimeter=3.372e-05  
CCC5@9	VDDHV	OUT	csf4a 	0 	area=6.3936e-11 perimeter=3.372e-05  
CCC5@10	VDDHV	OUT	csf4a 	0 	area=6.3936e-11 perimeter=3.372e-05  
CCC5@11	VDDHV	OUT	csf4a 	0 	area=6.3936e-11 perimeter=3.372e-05  
CCC2@30	GNDHV	GATEN	csf4a 	0 	area=6.3936e-11 perimeter=3.372e-05  
CCC2@31	GNDHV	GATEN	csf4a 	0 	area=6.3936e-11 perimeter=3.372e-05  
CCC2@32	GNDHV	GATEN	csf4a 	0 	area=6.3936e-11 perimeter=3.372e-05  
CCC2@33	GNDHV	GATEN	csf4a 	0 	area=6.3936e-11 perimeter=3.372e-05  
CCC2@34	GNDHV	GATEN	csf4a 	0 	area=6.3936e-11 perimeter=3.372e-05  
CCC2@35	GNDHV	GATEN	csf4a 	0 	area=6.3936e-11 perimeter=3.372e-05  
CCC2@36	GNDHV	GATEN	csf4a 	0 	area=6.3936e-11 perimeter=3.372e-05  
CCC2@37	GNDHV	GATEN	csf4a 	0 	area=6.3936e-11 perimeter=3.372e-05  
CCC2@38	GNDHV	GATEN	csf4a 	0 	area=6.3936e-11 perimeter=3.372e-05  
CCC2@39	GNDHV	GATEN	csf4a 	0 	area=6.3936e-11 perimeter=3.372e-05  
CCC5@12	VDDHV	OUT	csf4a 	0 	area=6.3936e-11 perimeter=3.372e-05  
CCC5@13	VDDHV	OUT	csf4a 	0 	area=6.3936e-11 perimeter=3.372e-05  
CCC5@14	VDDHV	OUT	csf4a 	0 	area=6.3936e-11 perimeter=3.372e-05  
CCC5@15	VDDHV	OUT	csf4a 	0 	area=6.3936e-11 perimeter=3.372e-05  
CCC2@40	GNDHV	GATEN	csf4a 	0 	area=6.3936e-11 perimeter=3.372e-05  
CCC2@41	GNDHV	GATEN	csf4a 	0 	area=6.3936e-11 perimeter=3.372e-05  
CCC2@42	GNDHV	GATEN	csf4a 	0 	area=6.3936e-11 perimeter=3.372e-05  
CCC2@43	GNDHV	GATEN	csf4a 	0 	area=6.3936e-11 perimeter=3.372e-05  
CCC2@44	GNDHV	GATEN	csf4a 	0 	area=6.3936e-11 perimeter=3.372e-05  
CCC2@45	GNDHV	GATEN	csf4a 	0 	area=6.3936e-11 perimeter=3.372e-05  
CCC2@46	GNDHV	GATEN	csf4a 	0 	area=6.3936e-11 perimeter=3.372e-05  
CCC2@47	GNDHV	GATEN	csf4a 	0 	area=6.3936e-11 perimeter=3.372e-05  
CCC2@48	GNDHV	GATEN	csf4a 	0 	area=6.3936e-11 perimeter=3.372e-05  
CCC2@49	GNDHV	GATEN	csf4a 	0 	area=6.3936e-11 perimeter=3.372e-05  
CCC5@16	VDDHV	OUT	csf4a 	0 	area=6.3936e-11 perimeter=3.372e-05  
CCC5@17	VDDHV	OUT	csf4a 	0 	area=6.3936e-11 perimeter=3.372e-05  
CCC5@18	VDDHV	OUT	csf4a 	0 	area=6.3936e-11 perimeter=3.372e-05  
CCC5@19	VDDHV	OUT	csf4a 	0 	area=6.3936e-11 perimeter=3.372e-05  
CCC2@50	GNDHV	GATEN	csf4a 	0 	area=6.3936e-11 perimeter=3.372e-05  
CCC2@51	GNDHV	GATEN	csf4a 	0 	area=6.3936e-11 perimeter=3.372e-05  
CCC2@52	GNDHV	GATEN	csf4a 	0 	area=6.3936e-11 perimeter=3.372e-05  
CCC2@53	GNDHV	GATEN	csf4a 	0 	area=6.3936e-11 perimeter=3.372e-05  
CCC2@54	GNDHV	GATEN	csf4a 	0 	area=6.3936e-11 perimeter=3.372e-05  
CCC2@55	GNDHV	GATEN	csf4a 	0 	area=6.3936e-11 perimeter=3.372e-05  
CCC2@56	GNDHV	GATEN	csf4a 	0 	area=6.3936e-11 perimeter=3.372e-05  
CCC2@57	GNDHV	GATEN	csf4a 	0 	area=6.3936e-11 perimeter=3.372e-05  
CCC2@58	GNDHV	GATEN	csf4a 	0 	area=6.3936e-11 perimeter=3.372e-05  
CCC2@59	GNDHV	GATEN	csf4a 	0 	area=6.3936e-11 perimeter=3.372e-05  
CCC5@20	VDDHV	OUT	csf4a 	0 	area=6.3936e-11 perimeter=3.372e-05  
CCC5@21	VDDHV	OUT	csf4a 	0 	area=6.3936e-11 perimeter=3.372e-05  
CCC0	VDDHV	OUT	csf4a 	0 	area=6.3936e-11 perimeter=3.372e-05  
CCC0@1	VDDHV	OUT	csf4a 	0 	area=6.3936e-11 perimeter=3.372e-05  
CCC2@60	GNDHV	GATEN	csf4a 	0 	area=6.3936e-11 perimeter=3.372e-05  
CCC2@61	GNDHV	GATEN	csf4a 	0 	area=6.3936e-11 perimeter=3.372e-05  
CCC2@62	GNDHV	GATEN	csf4a 	0 	area=6.3936e-11 perimeter=3.372e-05  
CCC2@63	GNDHV	GATEN	csf4a 	0 	area=6.3936e-11 perimeter=3.372e-05  
CCC2@64	GNDHV	GATEN	csf4a 	0 	area=6.3936e-11 perimeter=3.372e-05  
CCC2@65	GNDHV	GATEN	csf4a 	0 	area=6.3936e-11 perimeter=3.372e-05  
CCC2@66	GNDHV	GATEN	csf4a 	0 	area=6.3936e-11 perimeter=3.372e-05  
CCC2@67	GNDHV	GATEN	csf4a 	0 	area=6.3936e-11 perimeter=3.372e-05  
CCC2@68	GNDHV	GATEN	csf4a 	0 	area=6.3936e-11 perimeter=3.372e-05  
CCC2@69	GNDHV	GATEN	csf4a 	0 	area=6.3936e-11 perimeter=3.372e-05  
CCC0@2	VDDHV	OUT	csf4a 	0 	area=6.3936e-11 perimeter=3.372e-05  
CCC0@3	VDDHV	OUT	csf4a 	0 	area=6.3936e-11 perimeter=3.372e-05  
CCC0@4	VDDHV	OUT	csf4a 	0 	area=6.3936e-11 perimeter=3.372e-05  
CCC0@5	VDDHV	OUT	csf4a 	0 	area=6.3936e-11 perimeter=3.372e-05  
CCC0@6	VDDHV	OUT	csf4a 	0 	area=6.3936e-11 perimeter=3.372e-05  
CCC0@7	VDDHV	OUT	csf4a 	0 	area=6.3936e-11 perimeter=3.372e-05  
CCC0@8	VDDHV	OUT	csf4a 	0 	area=6.3936e-11 perimeter=3.372e-05  
CCC0@9	VDDHV	OUT	csf4a 	0 	area=6.3936e-11 perimeter=3.372e-05  
CCC0@10	VDDHV	OUT	csf4a 	0 	area=6.3936e-11 perimeter=3.372e-05  
CCC0@11	VDDHV	OUT	csf4a 	0 	area=6.3936e-11 perimeter=3.372e-05  
CCC0@12	VDDHV	OUT	csf4a 	0 	area=6.3936e-11 perimeter=3.372e-05  
CCC0@13	VDDHV	OUT	csf4a 	0 	area=6.3936e-11 perimeter=3.372e-05  
CCC0@14	VDDHV	OUT	csf4a 	0 	area=6.3936e-11 perimeter=3.372e-05  
CCC0@15	VDDHV	OUT	csf4a 	0 	area=6.3936e-11 perimeter=3.372e-05  
CCC0@16	VDDHV	OUT	csf4a 	0 	area=6.3936e-11 perimeter=3.372e-05  
CCC0@17	VDDHV	OUT	csf4a 	0 	area=6.3936e-11 perimeter=3.372e-05  
CCC0@18	VDDHV	OUT	csf4a 	0 	area=6.3936e-11 perimeter=3.372e-05  
CCC0@19	VDDHV	OUT	csf4a 	0 	area=6.3936e-11 perimeter=3.372e-05  
CCC0@20	VDDHV	OUT	csf4a 	0 	area=6.3936e-11 perimeter=3.372e-05  
CCC0@21	VDDHV	OUT	csf4a 	0 	area=6.3936e-11 perimeter=3.372e-05  
CCC0@22	VDDHV	OUT	csf4a 	0 	area=6.3936e-11 perimeter=3.372e-05  
CCC0@23	VDDHV	OUT	csf4a 	0 	area=6.3936e-11 perimeter=3.372e-05  
CCC0@24	VDDHV	OUT	csf4a 	0 	area=6.3936e-11 perimeter=3.372e-05  
CCC0@25	VDDHV	OUT	csf4a 	0 	area=6.3936e-11 perimeter=3.372e-05  
CCC0@26	VDDHV	OUT	csf4a 	0 	area=6.3936e-11 perimeter=3.372e-05  
CCC0@27	VDDHV	OUT	csf4a 	0 	area=6.3936e-11 perimeter=3.372e-05  
CCC0@28	VDDHV	OUT	csf4a 	0 	area=6.3936e-11 perimeter=3.372e-05  
CCC0@29	VDDHV	OUT	csf4a 	0 	area=6.3936e-11 perimeter=3.372e-05  
CCC0@30	VDDHV	OUT	csf4a 	0 	area=6.3936e-11 perimeter=3.372e-05  
CCC0@31	VDDHV	OUT	csf4a 	0 	area=6.3936e-11 perimeter=3.372e-05  
CCC0@32	VDDHV	OUT	csf4a 	0 	area=6.3936e-11 perimeter=3.372e-05  
CCC0@33	VDDHV	OUT	csf4a 	0 	area=6.3936e-11 perimeter=3.372e-05  
CCC0@34	VDDHV	OUT	csf4a 	0 	area=6.3936e-11 perimeter=3.372e-05  
CCC0@35	VDDHV	OUT	csf4a 	0 	area=6.3936e-11 perimeter=3.372e-05  
CCC0@36	VDDHV	OUT	csf4a 	0 	area=6.3936e-11 perimeter=3.372e-05  
CCC0@37	VDDHV	OUT	csf4a 	0 	area=6.3936e-11 perimeter=3.372e-05  
CCC0@38	VDDHV	OUT	csf4a 	0 	area=6.3936e-11 perimeter=3.372e-05  
CCC0@39	VDDHV	OUT	csf4a 	0 	area=6.3936e-11 perimeter=3.372e-05  
CCC0@40	VDDHV	OUT	csf4a 	0 	area=6.3936e-11 perimeter=3.372e-05  
CCC0@41	VDDHV	OUT	csf4a 	0 	area=6.3936e-11 perimeter=3.372e-05  
CCC0@42	VDDHV	OUT	csf4a 	0 	area=6.3936e-11 perimeter=3.372e-05  
CCC0@43	VDDHV	OUT	csf4a 	0 	area=6.3936e-11 perimeter=3.372e-05  
CCC0@44	VDDHV	OUT	csf4a 	0 	area=6.3936e-11 perimeter=3.372e-05  
CCC0@45	VDDHV	OUT	csf4a 	0 	area=6.3936e-11 perimeter=3.372e-05  
CCC0@46	VDDHV	OUT	csf4a 	0 	area=6.3936e-11 perimeter=3.372e-05  
CCC0@47	VDDHV	OUT	csf4a 	0 	area=6.3936e-11 perimeter=3.372e-05  
CCC0@48	VDDHV	OUT	csf4a 	0 	area=6.3936e-11 perimeter=3.372e-05  
CCC0@49	VDDHV	OUT	csf4a 	0 	area=6.3936e-11 perimeter=3.372e-05  
CCC0@50	VDDHV	OUT	csf4a 	0 	area=6.3936e-11 perimeter=3.372e-05  
CCC0@51	VDDHV	OUT	csf4a 	0 	area=6.3936e-11 perimeter=3.372e-05  
CCC0@52	VDDHV	OUT	csf4a 	0 	area=6.3936e-11 perimeter=3.372e-05  
CCC0@53	VDDHV	OUT	csf4a 	0 	area=6.3936e-11 perimeter=3.372e-05  
CCC0@54	VDDHV	OUT	csf4a 	0 	area=6.3936e-11 perimeter=3.372e-05  
CCC0@55	VDDHV	OUT	csf4a 	0 	area=6.3936e-11 perimeter=3.372e-05  
CCC0@56	VDDHV	OUT	csf4a 	0 	area=6.3936e-11 perimeter=3.372e-05  
CCC0@57	VDDHV	OUT	csf4a 	0 	area=6.3936e-11 perimeter=3.372e-05  
CCC0@58	VDDHV	OUT	csf4a 	0 	area=6.3936e-11 perimeter=3.372e-05  
CCC0@59	VDDHV	OUT	csf4a 	0 	area=6.3936e-11 perimeter=3.372e-05  
CCC0@60	VDDHV	OUT	csf4a 	0 	area=6.3936e-11 perimeter=3.372e-05  
CCC0@61	VDDHV	OUT	csf4a 	0 	area=6.3936e-11 perimeter=3.372e-05  
CCC0@62	VDDHV	OUT	csf4a 	0 	area=6.3936e-11 perimeter=3.372e-05  
CCC0@63	VDDHV	OUT	csf4a 	0 	area=6.3936e-11 perimeter=3.372e-05  
CCC0@64	VDDHV	OUT	csf4a 	0 	area=6.3936e-11 perimeter=3.372e-05  
CCC0@65	VDDHV	OUT	csf4a 	0 	area=6.3936e-11 perimeter=3.372e-05  
CCC0@66	VDDHV	OUT	csf4a 	0 	area=6.3936e-11 perimeter=3.372e-05  
CCC0@67	VDDHV	OUT	csf4a 	0 	area=6.3936e-11 perimeter=3.372e-05  
CCC0@68	VDDHV	OUT	csf4a 	0 	area=6.3936e-11 perimeter=3.372e-05  
CCC0@69	VDDHV	OUT	csf4a 	0 	area=6.3936e-11 perimeter=3.372e-05  
CCC0@70	VDDHV	OUT	csf4a 	0 	area=6.3936e-11 perimeter=3.372e-05  
CCC0@71	VDDHV	OUT	csf4a 	0 	area=6.3936e-11 perimeter=3.372e-05  
CCC0@72	VDDHV	OUT	csf4a 	0 	area=6.3936e-11 perimeter=3.372e-05  
CCC0@73	VDDHV	OUT	csf4a 	0 	area=6.3936e-11 perimeter=3.372e-05  
CCC0@74	VDDHV	OUT	csf4a 	0 	area=6.3936e-11 perimeter=3.372e-05  
CCC0@75	VDDHV	OUT	csf4a 	0 	area=6.3936e-11 perimeter=3.372e-05  
CCC0@76	VDDHV	OUT	csf4a 	0 	area=6.3936e-11 perimeter=3.372e-05  
CCC0@77	VDDHV	OUT	csf4a 	0 	area=6.3936e-11 perimeter=3.372e-05  
CCC0@78	VDDHV	OUT	csf4a 	0 	area=6.3936e-11 perimeter=3.372e-05  
CCC0@79	VDDHV	OUT	csf4a 	0 	area=6.3936e-11 perimeter=3.372e-05  
CCC0@80	VDDHV	OUT	csf4a 	0 	area=6.3936e-11 perimeter=3.372e-05  
CCC0@81	VDDHV	OUT	csf4a 	0 	area=6.3936e-11 perimeter=3.372e-05  
CCC0@82	VDDHV	OUT	csf4a 	0 	area=6.3936e-11 perimeter=3.372e-05  
CCC0@83	VDDHV	OUT	csf4a 	0 	area=6.3936e-11 perimeter=3.372e-05  
CCC0@84	VDDHV	OUT	csf4a 	0 	area=6.3936e-11 perimeter=3.372e-05  
CCC0@85	VDDHV	OUT	csf4a 	0 	area=6.3936e-11 perimeter=3.372e-05  
CCC0@86	VDDHV	OUT	csf4a 	0 	area=6.3936e-11 perimeter=3.372e-05  
CCC0@87	VDDHV	OUT	csf4a 	0 	area=6.3936e-11 perimeter=3.372e-05  
CCC0@88	VDDHV	OUT	csf4a 	0 	area=6.3936e-11 perimeter=3.372e-05  
CCC0@89	VDDHV	OUT	csf4a 	0 	area=6.3936e-11 perimeter=3.372e-05  
CCC0@90	VDDHV	OUT	csf4a 	0 	area=6.3936e-11 perimeter=3.372e-05  
CCC0@91	VDDHV	OUT	csf4a 	0 	area=6.3936e-11 perimeter=3.372e-05  
CCC0@92	VDDHV	OUT	csf4a 	0 	area=6.3936e-11 perimeter=3.372e-05  
CCC0@93	VDDHV	OUT	csf4a 	0 	area=6.3936e-11 perimeter=3.372e-05  
CCC0@94	VDDHV	OUT	csf4a 	0 	area=6.3936e-11 perimeter=3.372e-05  
CCC0@95	VDDHV	OUT	csf4a 	0 	area=6.3936e-11 perimeter=3.372e-05  
CCC0@96	VDDHV	OUT	csf4a 	0 	area=6.3936e-11 perimeter=3.372e-05  
CCC0@97	VDDHV	OUT	csf4a 	0 	area=6.3936e-11 perimeter=3.372e-05  
CCC0@98	VDDHV	OUT	csf4a 	0 	area=6.3936e-11 perimeter=3.372e-05  
CCC0@99	VDDHV	OUT	csf4a 	0 	area=6.3936e-11 perimeter=3.372e-05  
CCC0@100	VDDHV	OUT	csf4a 	0 
+ area=6.3936e-11 perimeter=3.372e-05  
CCC0@101	VDDHV	OUT	csf4a 	0 
+ area=6.3936e-11 perimeter=3.372e-05  
CCC0@102	VDDHV	OUT	csf4a 	0 
+ area=6.3936e-11 perimeter=3.372e-05  
CCC0@103	VDDHV	OUT	csf4a 	0 
+ area=6.3936e-11 perimeter=3.372e-05  
CCC0@104	VDDHV	OUT	csf4a 	0 
+ area=6.3936e-11 perimeter=3.372e-05  
CCC0@105	VDDHV	OUT	csf4a 	0 
+ area=6.3936e-11 perimeter=3.372e-05  
CCC0@106	VDDHV	OUT	csf4a 	0 
+ area=6.3936e-11 perimeter=3.372e-05  
CCC0@107	VDDHV	OUT	csf4a 	0 
+ area=6.3936e-11 perimeter=3.372e-05  
CCC0@108	VDDHV	OUT	csf4a 	0 
+ area=6.3936e-11 perimeter=3.372e-05  
CCC0@109	VDDHV	OUT	csf4a 	0 
+ area=6.3936e-11 perimeter=3.372e-05  
CCC0@110	VDDHV	OUT	csf4a 	0 
+ area=6.3936e-11 perimeter=3.372e-05  
CCC0@111	VDDHV	OUT	csf4a 	0 
+ area=6.3936e-11 perimeter=3.372e-05  
CCC0@112	VDDHV	OUT	csf4a 	0 
+ area=6.3936e-11 perimeter=3.372e-05  
CCC0@113	VDDHV	OUT	csf4a 	0 
+ area=6.3936e-11 perimeter=3.372e-05  
CCC0@114	VDDHV	OUT	csf4a 	0 
+ area=6.3936e-11 perimeter=3.372e-05  
CCC0@115	VDDHV	OUT	csf4a 	0 
+ area=6.3936e-11 perimeter=3.372e-05  
CCC0@116	VDDHV	OUT	csf4a 	0 
+ area=6.3936e-11 perimeter=3.372e-05  
CCC0@117	VDDHV	OUT	csf4a 	0 
+ area=6.3936e-11 perimeter=3.372e-05  
CCC0@118	VDDHV	OUT	csf4a 	0 
+ area=6.3936e-11 perimeter=3.372e-05  
CCC0@119	VDDHV	OUT	csf4a 	0 
+ area=6.3936e-11 perimeter=3.372e-05  
CCC0@120	VDDHV	OUT	csf4a 	0 
+ area=6.3936e-11 perimeter=3.372e-05  
CCC0@121	VDDHV	OUT	csf4a 	0 
+ area=6.3936e-11 perimeter=3.372e-05  
CCC0@122	VDDHV	OUT	csf4a 	0 
+ area=6.3936e-11 perimeter=3.372e-05  
CCC0@123	VDDHV	OUT	csf4a 	0 
+ area=6.3936e-11 perimeter=3.372e-05  
CCC0@124	VDDHV	OUT	csf4a 	0 
+ area=6.3936e-11 perimeter=3.372e-05  
CCC0@125	VDDHV	OUT	csf4a 	0 
+ area=6.3936e-11 perimeter=3.372e-05  
CCC0@126	VDDHV	OUT	csf4a 	0 
+ area=6.3936e-11 perimeter=3.372e-05  
CCC0@127	VDDHV	OUT	csf4a 	0 
+ area=6.3936e-11 perimeter=3.372e-05  
CCC0@128	VDDHV	OUT	csf4a 	0 
+ area=6.3936e-11 perimeter=3.372e-05  
CCC0@129	VDDHV	OUT	csf4a 	0 
+ area=6.3936e-11 perimeter=3.372e-05  
CCC0@130	VDDHV	OUT	csf4a 	0 
+ area=6.3936e-11 perimeter=3.372e-05  
CCC0@131	VDDHV	OUT	csf4a 	0 
+ area=6.3936e-11 perimeter=3.372e-05  
CCC0@132	VDDHV	OUT	csf4a 	0 
+ area=6.3936e-11 perimeter=3.372e-05  
CCC0@133	VDDHV	OUT	csf4a 	0 
+ area=6.3936e-11 perimeter=3.372e-05  
CCC0@134	VDDHV	OUT	csf4a 	0 
+ area=6.3936e-11 perimeter=3.372e-05  
CCC0@135	VDDHV	OUT	csf4a 	0 
+ area=6.3936e-11 perimeter=3.372e-05  
CCC0@136	VDDHV	OUT	csf4a 	0 
+ area=6.3936e-11 perimeter=3.372e-05  
CCC0@137	VDDHV	OUT	csf4a 	0 
+ area=6.3936e-11 perimeter=3.372e-05  
CCC0@138	VDDHV	OUT	csf4a 	0 
+ area=6.3936e-11 perimeter=3.372e-05  
CCC0@139	VDDHV	OUT	csf4a 	0 
+ area=6.3936e-11 perimeter=3.372e-05  
CCC0@140	VDDHV	OUT	csf4a 	0 
+ area=6.3936e-11 perimeter=3.372e-05  
CCC0@141	VDDHV	OUT	csf4a 	0 
+ area=6.3936e-11 perimeter=3.372e-05  
CCC0@142	VDDHV	OUT	csf4a 	0 
+ area=6.3936e-11 perimeter=3.372e-05  
CCC0@143	VDDHV	OUT	csf4a 	0 
+ area=6.3936e-11 perimeter=3.372e-05  
CCC0@144	VDDHV	OUT	csf4a 	0 
+ area=6.3936e-11 perimeter=3.372e-05  
CCC0@145	VDDHV	OUT	csf4a 	0 
+ area=6.3936e-11 perimeter=3.372e-05  
CCC0@146	VDDHV	OUT	csf4a 	0 
+ area=6.3936e-11 perimeter=3.372e-05  
CCC0@147	VDDHV	OUT	csf4a 	0 
+ area=6.3936e-11 perimeter=3.372e-05  
CCC0@148	VDDHV	OUT	csf4a 	0 
+ area=6.3936e-11 perimeter=3.372e-05  
CCC0@149	VDDHV	OUT	csf4a 	0 
+ area=6.3936e-11 perimeter=3.372e-05  
CCC4	VDDHV	OUT	csf4a 	0 	area=6.3936e-11 perimeter=3.372e-05  
CCC4@1	VDDHV	OUT	csf4a 	0 	area=6.3936e-11 perimeter=3.372e-05  
CCC4@2	VDDHV	OUT	csf4a 	0 	area=6.3936e-11 perimeter=3.372e-05  
CCC4@3	VDDHV	OUT	csf4a 	0 	area=6.3936e-11 perimeter=3.372e-05  
CCC4@4	VDDHV	OUT	csf4a 	0 	area=6.3936e-11 perimeter=3.372e-05  
CCC4@5	VDDHV	OUT	csf4a 	0 	area=6.3936e-11 perimeter=3.372e-05  
CCC4@6	VDDHV	OUT	csf4a 	0 	area=6.3936e-11 perimeter=3.372e-05  
CCC4@7	VDDHV	OUT	csf4a 	0 	area=6.3936e-11 perimeter=3.372e-05  
CCC4@8	VDDHV	OUT	csf4a 	0 	area=6.3936e-11 perimeter=3.372e-05  
CCC4@9	VDDHV	OUT	csf4a 	0 	area=6.3936e-11 perimeter=3.372e-05  
CCC4@10	VDDHV	OUT	csf4a 	0 	area=6.3936e-11 perimeter=3.372e-05  
CCC4@11	VDDHV	OUT	csf4a 	0 	area=6.3936e-11 perimeter=3.372e-05  
CCC4@12	VDDHV	OUT	csf4a 	0 	area=6.3936e-11 perimeter=3.372e-05  
CCC4@13	VDDHV	OUT	csf4a 	0 	area=6.3936e-11 perimeter=3.372e-05  
CCC4@14	VDDHV	OUT	csf4a 	0 	area=6.3936e-11 perimeter=3.372e-05  
CCC4@15	VDDHV	OUT	csf4a 	0 	area=6.3936e-11 perimeter=3.372e-05  
CCC4@16	VDDHV	OUT	csf4a 	0 	area=6.3936e-11 perimeter=3.372e-05  
CCC4@17	VDDHV	OUT	csf4a 	0 	area=6.3936e-11 perimeter=3.372e-05  
CCC4@18	VDDHV	OUT	csf4a 	0 	area=6.3936e-11 perimeter=3.372e-05  
CCC4@19	VDDHV	OUT	csf4a 	0 	area=6.3936e-11 perimeter=3.372e-05  
CCC4@20	VDDHV	OUT	csf4a 	0 	area=6.3936e-11 perimeter=3.372e-05  
CCC4@21	VDDHV	OUT	csf4a 	0 	area=6.3936e-11 perimeter=3.372e-05  
CCC4@22	VDDHV	OUT	csf4a 	0 	area=6.3936e-11 perimeter=3.372e-05  
CCC4@23	VDDHV	OUT	csf4a 	0 	area=6.3936e-11 perimeter=3.372e-05  
CCC4@24	VDDHV	OUT	csf4a 	0 	area=6.3936e-11 perimeter=3.372e-05  
CCC4@25	VDDHV	OUT	csf4a 	0 	area=6.3936e-11 perimeter=3.372e-05  
CCC4@26	VDDHV	OUT	csf4a 	0 	area=6.3936e-11 perimeter=3.372e-05  
CCC4@27	VDDHV	OUT	csf4a 	0 	area=6.3936e-11 perimeter=3.372e-05  
CCC4@28	VDDHV	OUT	csf4a 	0 	area=6.3936e-11 perimeter=3.372e-05  
CCC4@29	VDDHV	OUT	csf4a 	0 	area=6.3936e-11 perimeter=3.372e-05  
CCC4@30	VDDHV	OUT	csf4a 	0 	area=6.3936e-11 perimeter=3.372e-05  
CCC4@31	VDDHV	OUT	csf4a 	0 	area=6.3936e-11 perimeter=3.372e-05  
CCC4@32	VDDHV	OUT	csf4a 	0 	area=6.3936e-11 perimeter=3.372e-05  
CCC4@33	VDDHV	OUT	csf4a 	0 	area=6.3936e-11 perimeter=3.372e-05  
CCC4@34	VDDHV	OUT	csf4a 	0 	area=6.3936e-11 perimeter=3.372e-05  
CCC4@35	VDDHV	OUT	csf4a 	0 	area=6.3936e-11 perimeter=3.372e-05  
CCC4@36	VDDHV	OUT	csf4a 	0 	area=6.3936e-11 perimeter=3.372e-05  
CCC4@37	VDDHV	OUT	csf4a 	0 	area=6.3936e-11 perimeter=3.372e-05  
CCC4@38	VDDHV	OUT	csf4a 	0 	area=6.3936e-11 perimeter=3.372e-05  
CCC4@39	VDDHV	OUT	csf4a 	0 	area=6.3936e-11 perimeter=3.372e-05  
CCC4@40	VDDHV	OUT	csf4a 	0 	area=6.3936e-11 perimeter=3.372e-05  
CCC4@41	VDDHV	OUT	csf4a 	0 	area=6.3936e-11 perimeter=3.372e-05  
CCC4@42	VDDHV	OUT	csf4a 	0 	area=6.3936e-11 perimeter=3.372e-05  
CCC4@43	VDDHV	OUT	csf4a 	0 	area=6.3936e-11 perimeter=3.372e-05  
CCC4@44	VDDHV	OUT	csf4a 	0 	area=6.3936e-11 perimeter=3.372e-05  
CCC4@45	VDDHV	OUT	csf4a 	0 	area=6.3936e-11 perimeter=3.372e-05  
CCC4@46	VDDHV	OUT	csf4a 	0 	area=6.3936e-11 perimeter=3.372e-05  
CCC4@47	VDDHV	OUT	csf4a 	0 	area=6.3936e-11 perimeter=3.372e-05  
CCC4@48	VDDHV	OUT	csf4a 	0 	area=6.3936e-11 perimeter=3.372e-05  
CCC4@49	VDDHV	OUT	csf4a 	0 	area=6.3936e-11 perimeter=3.372e-05  
CCC4@50	VDDHV	OUT	csf4a 	0 	area=6.3936e-11 perimeter=3.372e-05  
CCC4@51	VDDHV	OUT	csf4a 	0 	area=6.3936e-11 perimeter=3.372e-05  
CCC4@52	VDDHV	OUT	csf4a 	0 	area=6.3936e-11 perimeter=3.372e-05  
CCC4@53	VDDHV	OUT	csf4a 	0 	area=6.3936e-11 perimeter=3.372e-05  
CCC4@54	VDDHV	OUT	csf4a 	0 	area=6.3936e-11 perimeter=3.372e-05  
CCC4@55	VDDHV	OUT	csf4a 	0 	area=6.3936e-11 perimeter=3.372e-05  
CCC4@56	VDDHV	OUT	csf4a 	0 	area=6.3936e-11 perimeter=3.372e-05  
CCC4@57	VDDHV	OUT	csf4a 	0 	area=6.3936e-11 perimeter=3.372e-05  
CCC4@58	VDDHV	OUT	csf4a 	0 	area=6.3936e-11 perimeter=3.372e-05  
CCC4@59	VDDHV	OUT	csf4a 	0 	area=6.3936e-11 perimeter=3.372e-05  
CCC4@60	VDDHV	OUT	csf4a 	0 	area=6.3936e-11 perimeter=3.372e-05  
CCC4@61	VDDHV	OUT	csf4a 	0 	area=6.3936e-11 perimeter=3.372e-05  
CCC4@62	VDDHV	OUT	csf4a 	0 	area=6.3936e-11 perimeter=3.372e-05  
CCC4@63	VDDHV	OUT	csf4a 	0 	area=6.3936e-11 perimeter=3.372e-05  
CCC4@64	VDDHV	OUT	csf4a 	0 	area=6.3936e-11 perimeter=3.372e-05  
CCC4@65	VDDHV	OUT	csf4a 	0 	area=6.3936e-11 perimeter=3.372e-05  
CCC4@66	VDDHV	OUT	csf4a 	0 	area=6.3936e-11 perimeter=3.372e-05  
CCC4@67	VDDHV	OUT	csf4a 	0 	area=6.3936e-11 perimeter=3.372e-05  
CCC4@68	VDDHV	OUT	csf4a 	0 	area=6.3936e-11 perimeter=3.372e-05  
CCC4@69	VDDHV	OUT	csf4a 	0 	area=6.3936e-11 perimeter=3.372e-05  
CCC4@70	VDDHV	OUT	csf4a 	0 	area=6.3936e-11 perimeter=3.372e-05  
CCC4@71	VDDHV	OUT	csf4a 	0 	area=6.3936e-11 perimeter=3.372e-05  
CCC4@72	VDDHV	OUT	csf4a 	0 	area=6.3936e-11 perimeter=3.372e-05  
CCC4@73	VDDHV	OUT	csf4a 	0 	area=6.3936e-11 perimeter=3.372e-05  
CCC4@74	VDDHV	OUT	csf4a 	0 	area=6.3936e-11 perimeter=3.372e-05  
CCC4@75	VDDHV	OUT	csf4a 	0 	area=6.3936e-11 perimeter=3.372e-05  
CCC4@76	VDDHV	OUT	csf4a 	0 	area=6.3936e-11 perimeter=3.372e-05  
CCC4@77	VDDHV	OUT	csf4a 	0 	area=6.3936e-11 perimeter=3.372e-05  
CCC4@78	VDDHV	OUT	csf4a 	0 	area=6.3936e-11 perimeter=3.372e-05  
CCC4@79	VDDHV	OUT	csf4a 	0 	area=6.3936e-11 perimeter=3.372e-05  
CCC4@80	VDDHV	OUT	csf4a 	0 	area=6.3936e-11 perimeter=3.372e-05  
CCC4@81	VDDHV	OUT	csf4a 	0 	area=6.3936e-11 perimeter=3.372e-05  
CCC4@82	VDDHV	OUT	csf4a 	0 	area=6.3936e-11 perimeter=3.372e-05  
CCC4@83	VDDHV	OUT	csf4a 	0 	area=6.3936e-11 perimeter=3.372e-05  
CCC4@84	VDDHV	OUT	csf4a 	0 	area=6.3936e-11 perimeter=3.372e-05  
CCC4@85	VDDHV	OUT	csf4a 	0 	area=6.3936e-11 perimeter=3.372e-05  
CCC4@86	VDDHV	OUT	csf4a 	0 	area=6.3936e-11 perimeter=3.372e-05  
CCC4@87	VDDHV	OUT	csf4a 	0 	area=6.3936e-11 perimeter=3.372e-05  
CCC4@88	VDDHV	OUT	csf4a 	0 	area=6.3936e-11 perimeter=3.372e-05  
CCC4@89	VDDHV	OUT	csf4a 	0 	area=6.3936e-11 perimeter=3.372e-05  
CCC4@90	VDDHV	OUT	csf4a 	0 	area=6.3936e-11 perimeter=3.372e-05  
CCC4@91	VDDHV	OUT	csf4a 	0 	area=6.3936e-11 perimeter=3.372e-05  
CCC4@92	VDDHV	OUT	csf4a 	0 	area=6.3936e-11 perimeter=3.372e-05  
CCC4@93	VDDHV	OUT	csf4a 	0 	area=6.3936e-11 perimeter=3.372e-05  
CCC4@94	VDDHV	OUT	csf4a 	0 	area=6.3936e-11 perimeter=3.372e-05  
CCC4@95	VDDHV	OUT	csf4a 	0 	area=6.3936e-11 perimeter=3.372e-05  
CCC4@96	VDDHV	OUT	csf4a 	0 	area=6.3936e-11 perimeter=3.372e-05  
CCC4@97	VDDHV	OUT	csf4a 	0 	area=6.3936e-11 perimeter=3.372e-05  
CCC4@98	VDDHV	OUT	csf4a 	0 	area=6.3936e-11 perimeter=3.372e-05  
CCC4@99	VDDHV	OUT	csf4a 	0 	area=6.3936e-11 perimeter=3.372e-05  
CCC4@100	VDDHV	OUT	csf4a 	0 
+ area=6.3936e-11 perimeter=3.372e-05  
CCC4@101	VDDHV	OUT	csf4a 	0 
+ area=6.3936e-11 perimeter=3.372e-05  
CCC4@102	VDDHV	OUT	csf4a 	0 
+ area=6.3936e-11 perimeter=3.372e-05  
CCC4@103	VDDHV	OUT	csf4a 	0 
+ area=6.3936e-11 perimeter=3.372e-05  
CCC4@104	VDDHV	OUT	csf4a 	0 
+ area=6.3936e-11 perimeter=3.372e-05  
CCC4@105	VDDHV	OUT	csf4a 	0 
+ area=6.3936e-11 perimeter=3.372e-05  
CCC4@106	VDDHV	OUT	csf4a 	0 
+ area=6.3936e-11 perimeter=3.372e-05  
CCC4@107	VDDHV	OUT	csf4a 	0 
+ area=6.3936e-11 perimeter=3.372e-05  
CCC4@108	VDDHV	OUT	csf4a 	0 
+ area=6.3936e-11 perimeter=3.372e-05  
CCC4@109	VDDHV	OUT	csf4a 	0 
+ area=6.3936e-11 perimeter=3.372e-05  
CCC4@110	VDDHV	OUT	csf4a 	0 
+ area=6.3936e-11 perimeter=3.372e-05  
CCC4@111	VDDHV	OUT	csf4a 	0 
+ area=6.3936e-11 perimeter=3.372e-05  
CCC4@112	VDDHV	OUT	csf4a 	0 
+ area=6.3936e-11 perimeter=3.372e-05  
CCC4@113	VDDHV	OUT	csf4a 	0 
+ area=6.3936e-11 perimeter=3.372e-05  
CCC4@114	VDDHV	OUT	csf4a 	0 
+ area=6.3936e-11 perimeter=3.372e-05  
CCC4@115	VDDHV	OUT	csf4a 	0 
+ area=6.3936e-11 perimeter=3.372e-05  
CCC4@116	VDDHV	OUT	csf4a 	0 
+ area=6.3936e-11 perimeter=3.372e-05  
CCC4@117	VDDHV	OUT	csf4a 	0 
+ area=6.3936e-11 perimeter=3.372e-05  
CCC4@118	VDDHV	OUT	csf4a 	0 
+ area=6.3936e-11 perimeter=3.372e-05  
CCC4@119	VDDHV	OUT	csf4a 	0 
+ area=6.3936e-11 perimeter=3.372e-05  
CCC4@120	VDDHV	OUT	csf4a 	0 
+ area=6.3936e-11 perimeter=3.372e-05  
CCC4@121	VDDHV	OUT	csf4a 	0 
+ area=6.3936e-11 perimeter=3.372e-05  
CCC4@122	VDDHV	OUT	csf4a 	0 
+ area=6.3936e-11 perimeter=3.372e-05  
CCC4@123	VDDHV	OUT	csf4a 	0 
+ area=6.3936e-11 perimeter=3.372e-05  
CCC4@124	VDDHV	OUT	csf4a 	0 
+ area=6.3936e-11 perimeter=3.372e-05  
CCC4@125	VDDHV	OUT	csf4a 	0 
+ area=6.3936e-11 perimeter=3.372e-05  
CCC4@126	VDDHV	OUT	csf4a 	0 
+ area=6.3936e-11 perimeter=3.372e-05  
CCC4@127	VDDHV	OUT	csf4a 	0 
+ area=6.3936e-11 perimeter=3.372e-05  
DX2/D0_unmatched	VSUBHV	VDD3	p_dnw	3.39001e-11	3.421e-05 
+  perimeter=3.421e-05  model=dnw
DX2/X430/D0_unmatched	VSUBHV	VDDHV	p_ddnw	1.12107e-09	0.00016136 
+  perimeter=0.00016136  model=ddnw
DX2/X429/D0_unmatched	VSUBHV	VDDHV	p_ddnw	1.12107e-09	0.00016136 
+  perimeter=0.00016136  model=ddnw
DX2/X428/D0_unmatched	VSUBHV	GATEN	p_dwhn	6.69221e-10	0.00022132 
+  perimeter=0.00022132  model=dwhn
DDD1@1	OUT	VDDHV	dpp20	2.5e-10	0.00011 
+  perimeter=0.00011 
DDD1	OUT	VDDHV	dpp20	2.5e-10	0.00011 
+  perimeter=0.00011 
DDD0	GNDHV	GATEN	dsba	1.41e-11	3.188e-05 
+  perimeter=3.188e-05  	$SUB=VSUBHV
DDD0@1	GNDHV	GATEN	dsba	1.41e-11	3.188e-05 
+  perimeter=3.188e-05  	$SUB=VSUBHV
DDD0@2	GNDHV	GATEN	dsba	1.41e-11	3.188e-05 
+  perimeter=3.188e-05  	$SUB=VSUBHV
DDD0@3	GNDHV	GATEN	dsba	1.41e-11	3.188e-05 
+  perimeter=3.188e-05  	$SUB=VSUBHV
DDD0@4	GNDHV	GATEN	dsba	1.41e-11	3.188e-05 
+  perimeter=3.188e-05  	$SUB=VSUBHV
DDD0@5	GNDHV	GATEN	dsba	1.41e-11	3.188e-05 
+  perimeter=3.188e-05  	$SUB=VSUBHV
DDD0@6	GNDHV	GATEN	dsba	1.41e-11	3.188e-05 
+  perimeter=3.188e-05  	$SUB=VSUBHV
DDD0@7	GNDHV	GATEN	dsba	1.41e-11	3.188e-05 
+  perimeter=3.188e-05  	$SUB=VSUBHV
DDD0@8	GNDHV	GATEN	dsba	1.41e-11	3.188e-05 
+  perimeter=3.188e-05  	$SUB=VSUBHV
DDD0@9	GNDHV	GATEN	dsba	1.41e-11	3.188e-05 
+  perimeter=3.188e-05  	$SUB=VSUBHV
DDD0@10	GNDHV	GATEN	dsba	1.41e-11	3.188e-05 
+  perimeter=3.188e-05  	$SUB=VSUBHV
DDD0@11	GNDHV	GATEN	dsba	1.41e-11	3.188e-05 
+  perimeter=3.188e-05  	$SUB=VSUBHV
DDD0@12	GNDHV	GATEN	dsba	1.41e-11	3.188e-05 
+  perimeter=3.188e-05  	$SUB=VSUBHV
DDD0@13	GNDHV	GATEN	dsba	1.41e-11	3.188e-05 
+  perimeter=3.188e-05  	$SUB=VSUBHV
DDD0@14	GNDHV	GATEN	dsba	1.41e-11	3.188e-05 
+  perimeter=3.188e-05  	$SUB=VSUBHV
DDD0@15	GNDHV	GATEN	dsba	1.41e-11	3.188e-05 
+  perimeter=3.188e-05  	$SUB=VSUBHV
DDD0@16	GNDHV	GATEN	dsba	1.41e-11	3.188e-05 
+  perimeter=3.188e-05  	$SUB=VSUBHV
DDD0@17	GNDHV	GATEN	dsba	1.41e-11	3.188e-05 
+  perimeter=3.188e-05  	$SUB=VSUBHV
DDD0@18	GNDHV	GATEN	dsba	1.41e-11	3.188e-05 
+  perimeter=3.188e-05  	$SUB=VSUBHV
DDD0@19	GNDHV	GATEN	dsba	1.41e-11	3.188e-05 
+  perimeter=3.188e-05  	$SUB=VSUBHV
DX2/D1_unmatched	VSUBHV	VDD3	p_dnw3	2.49e-11	0.000e+00 
+  perimeter=0  model=dnw3
*
*
*       CAPACITOR CARDS
*
*
C371	CUR_IN	OUT	5.23023e-13	$X=303.993 $Y=121.8465
C372	CUR_IN	GATEN	1.34088e-13	$X=274.097 $Y=116.9265
C373	OUT	VDDHV	6.431e-13	$X=225.6065 $Y=48.5735
C374	GATEN	GNDHV	2.11925e-13	$X=71.585 $Y=80.6445
C375	OUT	GATEP	1.01278e-13	$X=302.646 $Y=191.742
C376	CUR_IN	VSUBHV	4.43232e-14	$X=296.261 $Y=126.136
C377	DOWN	VSUBHV	1.63751e-15	$X=20.2425 $Y=113.798
C378	GNDD	VSUBHV	4.53415e-15	$X=22.509 $Y=111.288
C379	GNDHV	VSUBHV	2.12579e-13	$X=93.55 $Y=109.6025
C380	OUT	VSUBHV	5.49608e-13	$X=176.5265 $Y=163.522
C381	UP	VSUBHV	2.19069e-15	$X=23.2885 $Y=113.5035
C382	VDD3	VSUBHV	7.54499e-15	$X=23.1035 $Y=116.808
C383	VDDHV	VSUBHV	7.68372e-13	$X=176.9175 $Y=163.661
C384	GATEN	VSUBHV	2.41861e-13	$X=107.899 $Y=110.5735
C385	DOWNN	VSUBHV	1.59599e-14	$X=26.8005 $Y=130.229
C386	net5	VSUBHV	2.17567e-15	$X=25.922 $Y=113.801
C387	UPN	VSUBHV	1.85722e-14	$X=50.359 $Y=129.8535
C388	D4	VSUBHV	1.44369e-14	$X=69.641 $Y=155.817
C389	GATEP	VSUBHV	1.50506e-13	$X=301.6445 $Y=191.8085
C390	X2/X428/4	VSUBHV	2.4438e-17	$X=197.254 $Y=129.9645
C391	X2/X428/5	VSUBHV	3.71656e-17	$X=193.294 $Y=129.9645
C392	X2/X428/6	VSUBHV	3.71656e-17	$X=189.334 $Y=129.9645
C393	X2/X428/7	VSUBHV	3.71656e-17	$X=185.374 $Y=129.9645
C394	X2/X428/8	VSUBHV	3.71656e-17	$X=181.414 $Y=129.9645
C395	X2/X428/9	VSUBHV	3.71656e-17	$X=177.454 $Y=129.9645
C396	X2/X428/10	VSUBHV	3.71656e-17	$X=173.494 $Y=129.9645
C397	X2/X428/11	VSUBHV	3.76827e-17	$X=169.5345 $Y=129.9645
C398	X2/X428/12	VSUBHV	3.81998e-17	$X=165.5745 $Y=129.9645
C399	X2/X428/13	VSUBHV	3.81998e-17	$X=161.6145 $Y=129.9645
C400	X2/X428/14	VSUBHV	3.81998e-17	$X=157.6545 $Y=129.9645
C401	X2/X428/15	VSUBHV	3.81998e-17	$X=153.6945 $Y=129.9645
C402	X2/X428/16	VSUBHV	3.76827e-17	$X=149.7345 $Y=129.9645
C403	X2/X428/17	VSUBHV	3.71656e-17	$X=145.7745 $Y=129.9645
C404	X2/X428/18	VSUBHV	3.71656e-17	$X=141.8145 $Y=129.9645
C405	X2/X428/19	VSUBHV	3.71656e-17	$X=137.8545 $Y=129.9645
C406	X2/X428/20	VSUBHV	3.71656e-17	$X=133.8945 $Y=129.9645
C407	X2/X428/21	VSUBHV	3.71656e-17	$X=129.9345 $Y=129.9645
C408	X2/X428/22	VSUBHV	3.71656e-17	$X=125.9745 $Y=129.9645
C409	X2/X428/23	VSUBHV	2.4438e-17	$X=122.0145 $Y=129.9645
*
*
.ENDS hvswitch8
*
