*
*
*
*                       LINUX           Fri Jun 21 17:10:40 2024
*
*
*
*  PROGRAM  advgen
*
*  Name           : advgen - Quantus - (64-bit)
*  Version        : 23.1.0-p075
*  Build Date     : Tue Sep 26 09:11:43 PDT 2023
*
*  HSPICE LIBRARY
*
* GLOBAL_TEMPERATURE 27
*  OPERATING_TEMPERATURE 27
*  QRC_TECH_DIR /home/saul/pkg/xfab/XKIT/xh018/cadence/v9_0/QRC_pvs/v9_0_1/XH018_1143/QRC-Typ 
*
*!LENGTH_UNITS METERS
*
*
*
*
*       SUBCIRCUIT DEFINITIONS
*
.SUBCKT MOSVC3 G NW SB
.ENDS
*

*
.SUBCKT por2 BG_REF BIAS GNDA POR_OUT_L VDDA
*
*
*  caps2d version: 10
*
*       SUBCIRCUIT CALLS
*
XXC0 DEL#11 GNDA GNDA MOSVC3
+ w=5e-05 l=5e-05 model=mosvc3
XXC0@6 DEL#4 GNDA GNDA MOSVC3
+ w=5e-05 l=5e-05 model=mosvc3
XXC0@5 DEL#31 GNDA GNDA MOSVC3
+ w=5e-05 l=5e-05 model=mosvc3
XXC0@8 DEL#24 GNDA GNDA MOSVC3
+ w=5e-05 l=5e-05 model=mosvc3
XXC0@7 DEL#45 GNDA GNDA MOSVC3
+ w=5e-05 l=5e-05 model=mosvc3
XXC0@2 DEL#38 GNDA GNDA MOSVC3
+ w=5e-05 l=5e-05 model=mosvc3
XXC0@1 DEL#59 GNDA GNDA MOSVC3
+ w=5e-05 l=5e-05 model=mosvc3
XXC0@4 DEL#52 GNDA GNDA MOSVC3
+ w=5e-05 l=5e-05 model=mosvc3
XXC0@3 DEL#73 GNDA GNDA MOSVC3
+ w=5e-05 l=5e-05 model=mosvc3
XXC0@9 DEL#66 GNDA GNDA MOSVC3
+ w=5e-05 l=5e-05 model=mosvc3
*
*       TRANSISTOR CARDS
*
*
MMM20	GNDA#107	GNDA#8	GNDA#119	GNDA	ne3	L=5e-06
+ W=1e-05
+ AD=4.8e-12	AS=4.8e-12	PD=2.096e-05	PS=2.096e-05
+ NRD=0.0173	NRS=0.0173
MMM20@2	GNDA#123	GNDA#6	GNDA#113	GNDA	ne3	L=5e-06
+ W=1e-05
+ AD=4.8e-12	AS=4.8e-12	PD=2.096e-05	PS=2.096e-05
+ NRD=0.0173	NRS=0.0173
MMM20@1	GNDA#127	GNDA#10	GNDA#76	GNDA	ne3	L=5e-06
+ W=1e-05
+ AD=4.8e-12	AS=4.8e-12	PD=2.096e-05	PS=2.096e-05
+ NRD=0.0173	NRS=0.0173
MMM19@6	BIAS#94	BIAS#22	GNDA#73	GNDA	ne3	L=5e-06
+ W=1e-05
+ AD=4.8e-12	AS=4.8e-12	PD=2.096e-05	PS=2.096e-05
+ NRD=0.0173	NRS=0.0173
MMM19@4	BIAS#84	BIAS#18	GNDA#67	GNDA	ne3	L=5e-06
+ W=1e-05
+ AD=4.8e-12	AS=4.8e-12	PD=2.096e-05	PS=2.096e-05
+ NRD=0.0173	NRS=0.0173
MMM19@8	BIAS#70	BIAS#14	GNDA#61	GNDA	ne3	L=5e-06
+ W=1e-05
+ AD=4.8e-12	AS=4.8e-12	PD=2.096e-05	PS=2.096e-05
+ NRD=0.0173	NRS=0.0173
MMM19@9	BIAS#87	BIAS#20	GNDA#70	GNDA	ne3	L=5e-06
+ W=1e-05
+ AD=4.8e-12	AS=4.8e-12	PD=2.096e-05	PS=2.096e-05
+ NRD=0.0173	NRS=0.0173
MMM19	BIAS#73	BIAS#16	GNDA#64	GNDA	ne3	L=5e-06
+ W=1e-05
+ AD=4.8e-12	AS=4.8e-12	PD=2.096e-05	PS=2.096e-05
+ NRD=0.0173	NRS=0.0173
MMM19@3	BIAS#59	BIAS#10	GNDA#55	GNDA	ne3	L=5e-06
+ W=1e-05
+ AD=4.8e-12	AS=4.8e-12	PD=2.096e-05	PS=2.096e-05
+ NRD=0.0173	NRS=0.0173
MMM19@7	BIAS#45	BIAS#6	GNDA#49	GNDA	ne3	L=5e-06
+ W=1e-05
+ AD=4.8e-12	AS=4.8e-12	PD=2.096e-05	PS=2.096e-05
+ NRD=0.0173	NRS=0.0173
MMM18	net1#60	BIAS#12	GNDA#58	GNDA	ne3	L=5e-06
+ W=1e-05
+ AD=4.8e-12	AS=4.8e-12	PD=2.096e-05	PS=2.096e-05
+ NRD=0.0173	NRS=0.0173
MMM19@5	BIAS#48	BIAS#8	GNDA#52	GNDA	ne3	L=5e-06
+ W=1e-05
+ AD=4.8e-12	AS=4.8e-12	PD=2.096e-05	PS=2.096e-05
+ NRD=0.0173	NRS=0.0173
MMM19@1	BIAS#31	BIAS#2	GNDA#43	GNDA	ne3	L=5e-06
+ W=1e-05
+ AD=4.8e-12	AS=4.8e-12	PD=2.096e-05	PS=2.096e-05
+ NRD=0.0173	NRS=0.0173
MMM20@3	GNDA#37	GNDA#2	GNDA#28	GNDA	ne3	L=5e-06
+ W=1e-05
+ AD=4.8e-12	AS=4.8e-12	PD=2.096e-05	PS=2.096e-05
+ NRD=0.0173	NRS=0.0173
MMM19@2	BIAS#34	BIAS#4	GNDA#46	GNDA	ne3	L=5e-06
+ W=1e-05
+ AD=4.8e-12	AS=4.8e-12	PD=2.096e-05	PS=2.096e-05
+ NRD=0.0173	NRS=0.0173
MMM20@4	GNDA#40	GNDA#4	GNDA#33	GNDA	ne3	L=5e-06
+ W=1e-05
+ AD=4.8e-12	AS=4.8e-12	PD=2.096e-05	PS=2.096e-05
+ NRD=0.0173	NRS=0.0173
MMM17	net10#15	net10#3	GNDA#512	GNDA	ne3	L=5e-06
+ W=5e-06
+ AD=2.4e-12	AS=2.4e-12	PD=1.096e-05	PS=1.096e-05
+ NRD=0.0346	NRS=0.0346
MMM16	A#7	net10	GNDA#514	GNDA	ne3	L=5e-06	W=5e-06
+ AD=2.4e-12	AS=2.4e-12	PD=1.096e-05	PS=1.096e-05
+ NRD=0.0346	NRS=0.0346
MMM7@1	DEL#99	A#4	GNDA#500	GNDA	ne3	L=3.5e-07	W=5e-06
+ AD=1.35e-12	AS=2.4e-12	PD=5.54e-06	PS=1.096e-05
+ NRD=0.0346	NRS=0.0346
MMM7	DEL#99	A	GNDA#499	GNDA	ne3	L=3.5e-07	W=5e-06
+ AD=1.35e-12	AS=2.4e-12	PD=5.54e-06	PS=1.096e-05
+ NRD=0.0346	NRS=0.0346
MXI0/MM1	XI0/net31#19	DEL#19	XI0/net39#2	GNDA	ne3
+ L=3.5e-07	W=7.6e-07
+ AD=3.648e-13	AS=2.15279e-13	PD=2.48e-06	PS=1.40142e-06
+ NRD=0.241582	NRS=0.235553
MXI0/MM0	XI0/net39#2	DEL#18	GNDA#502	GNDA	ne3
+ L=3.5e-07	W=6.5e-07
+ AD=1.84121e-13	AS=5.1e-13	PD=1.19858e-06	PS=3.09e-06
+ NRD=0.236526	NRS=0.761514
MXI0/MM5	VDDA#213	XI0/net31#15	XI0/net39	GNDA	ne3
+ L=3.5e-07	W=8.9e-07
+ AD=4.628e-13	AS=5.162e-13	PD=2.82e-06	PS=2.94e-06
+ NRD=0.363867	NRS=0.376706
MXI0/MM7@3	POR_OUT_L#4	XI0/net31#13	GNDA#502	GNDA	ne3
+ L=3.5e-07	W=6.6e-07
+ AD=1.782e-13	AS=5.8405e-13	PD=1.2e-06	PS=3.57e-06
+ NRD=0.306771	NRS=0.20185
MXI0/MM7@2	POR_OUT_L#4	XI0/net31#11	GNDA#502	GNDA	ne3
+ L=3.5e-07	W=6.6e-07
+ AD=1.782e-13	AS=3.2115e-13	PD=1.2e-06	PS=1.835e-06
+ NRD=0.306771	NRS=0.322727
MXI0/MM7	POR_OUT_L#5	XI0/net31#9	GNDA#502	GNDA	ne3
+ L=3.5e-07	W=6.6e-07
+ AD=1.782e-13	AS=3.2115e-13	PD=1.2e-06	PS=1.835e-06
+ NRD=0.306771	NRS=0.322727
MXI0/MM7@1	POR_OUT_L#5	XI0/net31#8	GNDA#502	GNDA	ne3
+ L=3.5e-07	W=6.6e-07
+ AD=1.782e-13	AS=6.249e-13	PD=1.2e-06	PS=3.55e-06
+ NRD=0.306771	NRS=0.343682
MMM21@2	VDDA#156	VDDA#12	VDDA#135	VDDA	pe3	L=5e-06
+ W=1e-05
+ AD=4.8e-12	AS=4.8e-12	PD=2.096e-05	PS=2.096e-05
+ NRD=0.0173	NRS=0.0173
MMM21@3	VDDA#129	VDDA#8	VDDA#112	VDDA	pe3	L=5e-06
+ W=1e-05
+ AD=4.8e-12	AS=4.8e-12	PD=2.096e-05	PS=2.096e-05
+ NRD=0.0173	NRS=0.0173
MMM21@4	VDDA#159	VDDA#14	VDDA#138	VDDA	pe3	L=5e-06
+ W=1e-05
+ AD=4.8e-12	AS=4.8e-12	PD=2.096e-05	PS=2.096e-05
+ NRD=0.0173	NRS=0.0173
MMM21	VDDA#132	VDDA#10	VDDA#115	VDDA	pe3	L=5e-06
+ W=1e-05
+ AD=4.8e-12	AS=4.8e-12	PD=2.096e-05	PS=2.096e-05
+ NRD=0.0173	NRS=0.0173
MMM21@6	VDDA#162	VDDA#16	VDDA#141	VDDA	pe3	L=5e-06
+ W=1e-05
+ AD=4.8e-12	AS=4.8e-12	PD=2.096e-05	PS=2.096e-05
+ NRD=0.0173	NRS=0.0173
MMM14@3	net1#163	net1#44	VDDA#118	VDDA	pe3	L=5e-06
+ W=1e-05
+ AD=4.8e-12	AS=4.8e-12	PD=2.096e-05	PS=2.096e-05
+ NRD=0.0173	NRS=0.0173
MMM12@4	net9#25	net1#38	VDDA#103	VDDA	pe3	L=5e-06
+ W=1e-05
+ AD=4.8e-12	AS=4.8e-12	PD=2.096e-05	PS=2.096e-05
+ NRD=0.0173	NRS=0.0173
MMM14@9	net1#138	net1#32	VDDA#94	VDDA	pe3	L=5e-06
+ W=1e-05
+ AD=4.8e-12	AS=4.8e-12	PD=2.096e-05	PS=2.096e-05
+ NRD=0.0173	NRS=0.0173
MMM14@5	net1#156	net1#40	VDDA#106	VDDA	pe3	L=5e-06
+ W=1e-05
+ AD=4.8e-12	AS=4.8e-12	PD=2.096e-05	PS=2.096e-05
+ NRD=0.0173	NRS=0.0173
MMM1	DEL#96	net1#34	VDDA#97	VDDA	pe3	L=5e-06
+ W=1e-05
+ AD=4.8e-12	AS=4.8e-12	PD=2.096e-05	PS=2.096e-05
+ NRD=0.0173	NRS=0.0173
MMM12@6	net9#28	net1#42	VDDA#109	VDDA	pe3	L=5e-06
+ W=1e-05
+ AD=4.8e-12	AS=4.8e-12	PD=2.096e-05	PS=2.096e-05
+ NRD=0.0173	NRS=0.0173
MMM14@1	net1#141	net1#36	VDDA#100	VDDA	pe3	L=5e-06
+ W=1e-05
+ AD=4.8e-12	AS=4.8e-12	PD=2.096e-05	PS=2.096e-05
+ NRD=0.0173	NRS=0.0173
MMM12@5	net9#19	net1#26	VDDA#85	VDDA	pe3	L=5e-06
+ W=1e-05
+ AD=4.8e-12	AS=4.8e-12	PD=2.096e-05	PS=2.096e-05
+ NRD=0.0173	NRS=0.0173
MMM14	net1#105	net1#20	VDDA#76	VDDA	pe3	L=5e-06
+ W=1e-05
+ AD=4.8e-12	AS=4.8e-12	PD=2.096e-05	PS=2.096e-05
+ NRD=0.0173	NRS=0.0173
MMM14@4	net1#123	net1#28	VDDA#88	VDDA	pe3	L=5e-06
+ W=1e-05
+ AD=4.8e-12	AS=4.8e-12	PD=2.096e-05	PS=2.096e-05
+ NRD=0.0173	NRS=0.0173
MMM12@2	net9#16	net1#22	VDDA#79	VDDA	pe3	L=5e-06
+ W=1e-05
+ AD=4.8e-12	AS=4.8e-12	PD=2.096e-05	PS=2.096e-05
+ NRD=0.0173	NRS=0.0173
MMM12@9	net9#22	net1#30	VDDA#91	VDDA	pe3	L=5e-06
+ W=1e-05
+ AD=4.8e-12	AS=4.8e-12	PD=2.096e-05	PS=2.096e-05
+ NRD=0.0173	NRS=0.0173
MMM14@2	net1#108	net1#24	VDDA#82	VDDA	pe3	L=5e-06
+ W=1e-05
+ AD=4.8e-12	AS=4.8e-12	PD=2.096e-05	PS=2.096e-05
+ NRD=0.0173	NRS=0.0173
MMM12@7	net9#10	net1#14	VDDA#67	VDDA	pe3	L=5e-06
+ W=1e-05
+ AD=4.8e-12	AS=4.8e-12	PD=2.096e-05	PS=2.096e-05
+ NRD=0.0173	NRS=0.0173
MMM14@6	net1#75	net1#8	VDDA#58	VDDA	pe3	L=5e-06
+ W=1e-05
+ AD=4.8e-12	AS=4.8e-12	PD=2.096e-05	PS=2.096e-05
+ NRD=0.0173	NRS=0.0173
MMM1@1	DEL#77	net1#16	VDDA#70	VDDA	pe3	L=5e-06
+ W=1e-05
+ AD=4.8e-12	AS=4.8e-12	PD=2.096e-05	PS=2.096e-05
+ NRD=0.0173	NRS=0.0173
MMM12@3	net9#7	net1#10	VDDA#61	VDDA	pe3	L=5e-06
+ W=1e-05
+ AD=4.8e-12	AS=4.8e-12	PD=2.096e-05	PS=2.096e-05
+ NRD=0.0173	NRS=0.0173
MMM12@1	net9#13	net1#18	VDDA#73	VDDA	pe3	L=5e-06
+ W=1e-05
+ AD=4.8e-12	AS=4.8e-12	PD=2.096e-05	PS=2.096e-05
+ NRD=0.0173	NRS=0.0173
MMM14@7	net1#78	net1#12	VDDA#64	VDDA	pe3	L=5e-06
+ W=1e-05
+ AD=4.8e-12	AS=4.8e-12	PD=2.096e-05	PS=2.096e-05
+ NRD=0.0173	NRS=0.0173
MMM12	net9	net1#2	VDDA#49	VDDA	pe3	L=5e-06	W=1e-05
+ AD=4.8e-12	AS=4.8e-12	PD=2.096e-05	PS=2.096e-05
+ NRD=0.0173	NRS=0.0173
MMM21@1	VDDA#40	VDDA#2	VDDA#19	VDDA	pe3	L=5e-06
+ W=1e-05
+ AD=4.8e-12	AS=4.8e-12	PD=2.096e-05	PS=2.096e-05
+ NRD=0.0173	NRS=0.0173
MMM14@8	net1#57	net1#4	VDDA#52	VDDA	pe3	L=5e-06
+ W=1e-05
+ AD=4.8e-12	AS=4.8e-12	PD=2.096e-05	PS=2.096e-05
+ NRD=0.0173	NRS=0.0173
MMM21@5	VDDA#43	VDDA#4	VDDA#22	VDDA	pe3	L=5e-06
+ W=1e-05
+ AD=4.8e-12	AS=4.8e-12	PD=2.096e-05	PS=2.096e-05
+ NRD=0.0173	NRS=0.0173
MMM12@8	net9#4	net1#6	VDDA#55	VDDA	pe3	L=5e-06	W=1e-05
+ AD=4.8e-12	AS=4.8e-12	PD=2.096e-05	PS=2.096e-05
+ NRD=0.0173	NRS=0.0173
MMM21@7	VDDA#46	VDDA#6	VDDA#25	VDDA	pe3	L=5e-06
+ W=1e-05
+ AD=4.8e-12	AS=4.8e-12	PD=2.096e-05	PS=2.096e-05
+ NRD=0.0173	NRS=0.0173
MMM15	A#5	C#2	net9#33	VDDA	pe3	L=5e-07	W=4e-06
+ AD=1.92e-12	AS=1.92e-12	PD=8.96e-06	PS=8.96e-06
+ NRD=0.04325	NRS=0.04325
MMM13	net10#5	BG_REF#2	net9#31	VDDA	pe3	L=5e-07
+ W=4e-06
+ AD=1.92e-12	AS=1.92e-12	PD=8.96e-06	PS=8.96e-06
+ NRD=0.04325	NRS=0.04325
MXI0/MM2	XI0/net31#20	DEL#20	XI0/net14#2	VDDA	pe3	L=3e-07
+ W=1.41e-06
+ AD=7.1205e-13	AS=4.21161e-13	PD=3.83e-06	PS=2.04348e-06
+ NRD=0.402537	NRS=0.402537
MXI0/MM3	XI0/net14#2	DEL#15	VDDA#211	VDDA	pe3	L=3e-07
+ W=1.35e-06
+ AD=4.03239e-13	AS=9.5195e-13	PD=1.95652e-06	PS=4.66e-06
+ NRD=0.393476	NRS=0.373894
MXI0/MM4	GNDA#589	XI0/net31#16	XI0/net14	VDDA	pe3
+ L=3.5e-07	W=1.41e-06
+ AD=6.768e-13	AS=8.178e-13	PD=3.78e-06	PS=3.98e-06
+ NRD=0.384807	NRS=0.455729
MXI0/MM6@3	POR_OUT_L#6	XI0/net31#14	VDDA#211	VDDA	pe3
+ L=3e-07	W=1.41e-06
+ AD=4.1595e-13	AS=9.5945e-13	PD=2e-06	PS=4.66e-06
+ NRD=0.402537	NRS=0.146781
MXI0/MM6	POR_OUT_L#6	XI0/net31#12	VDDA#220	VDDA	pe3
+ L=3e-07	W=1.41e-06
+ AD=4.1595e-13	AS=4.1765e-13	PD=2e-06	PS=2.01e-06
+ NRD=0.402537	NRS=0.409457
MXI0/MM6@1	POR_OUT_L#1	XI0/net31#10	VDDA#220	VDDA	pe3
+ L=3e-07	W=1.41e-06
+ AD=4.1595e-13	AS=4.1765e-13	PD=2e-06	PS=2.01e-06
+ NRD=0.402537	NRS=0.409457
MXI0/MM6@2	POR_OUT_L#1	XI0/net31	VDDA#211	VDDA	pe3
+ L=3e-07	W=1.41e-06
+ AD=4.1595e-13	AS=9.8585e-13	PD=2e-06	PS=4.69e-06
+ NRD=0.402537	NRS=0.382286
*
*
*       CANONICAL RESISTOR AND CAP/DIODE CARDS
*
RRR1	VDDA#17	C#3	rpp1k1_3 	L=0.00411438	W=4e-06
+ $SUB=GNDA 
RRR2	C#5	GNDA#11	rpp1k1_3 	L=0.00283888	W=4e-06
+ $SUB=GNDA 
*
*       PARASITIC RESISTOR AND CAP/DIODE CARDS
*
Rd1	DEL#183	DEL#190	1.696000	$MET3	$W=2.96e-06
+ $X=10.035 $Y=98.1955
Rd2	GNDA#729	GNDA#717	1.696000	$MET3	$W=2.96e-06
+ $X=13.315 $Y=43.6355
Rd3	BIAS	BIAS#116	0.504219	$MET3	$W=1.96e-06
+ $X=15.255 $Y=159.4525
Rd4	BIAS#116	BIAS#123	0.940949	$MET3	$W=1.96e-06
+ $X=15.255 $Y=144.9105
Rd5	BIAS	BIAS#103	0.435974	$MET3	$W=1.96e-06
+ $X=15.24 $Y=165.76
Rd6	GNDA#689	GNDA#701	1.315949	$MET3	$W=1.96e-06
+ $X=17.595 $Y=146.7505
Rd7	net9#39	net9#45	1.643069	$MET3	$W=1.46e-06
+ $X=19.555 $Y=221.2255
Rd8	net9#45	net9#49	0.915370	$MET3	$W=1.46e-06
+ $X=19.555 $Y=203.3855
Rd9	net9#49	net9#55	1.643069	$MET3	$W=1.46e-06
+ $X=19.555 $Y=185.5455
Rd10	net1#182	net1#194	1.643069	$MET3	$W=1.46e-06
+ $X=21.335 $Y=219.9455
Rd11	net1#194	net1#207	0.915370	$MET3	$W=1.46e-06
+ $X=21.335 $Y=202.1055
Rd12	net1#207	net1#172	1.643069	$MET3	$W=1.46e-06
+ $X=21.335 $Y=184.2655
Rd13	VDDA#283	VDDA#242	0.815500	$MET3	$W=2.96e-06
+ $X=23.865 $Y=222.5055
Rd14	VDDA#242	VDDA#259	0.451500	$MET3	$W=2.96e-06
+ $X=23.865 $Y=204.6655
Rd15	VDDA#259	VDDA#273	0.815500	$MET3	$W=2.96e-06
+ $X=23.865 $Y=186.8255
Rd16	GNDA#677	GNDA#690	1.315949	$MET3	$W=1.96e-06
+ $X=70.555 $Y=146.7505
Rd17	BIAS#97	BIAS#104	0.940194	$MET3	$W=1.96e-06
+ $X=72.895 $Y=159.8905
Rd18	BIAS#104	BIAS#117	0.940949	$MET3	$W=1.96e-06
+ $X=72.895 $Y=144.9105
Rd19	VDDA#279	VDDA#225	0.815500	$MET3	$W=2.96e-06
+ $X=91.605 $Y=222.5055
Rd20	VDDA#225	VDDA#243	0.451500	$MET3	$W=2.96e-06
+ $X=91.605 $Y=204.6655
Rd21	VDDA#243	VDDA#260	0.815500	$MET3	$W=2.96e-06
+ $X=91.605 $Y=186.8255
Rd22	net9#38	net9#40	1.643069	$MET3	$W=1.46e-06
+ $X=94.135 $Y=221.2255
Rd23	net9#40	net9#46	0.915370	$MET3	$W=1.46e-06
+ $X=94.135 $Y=203.3855
Rd24	net9#46	net9#50	0.893069	$MET3	$W=1.46e-06
+ $X=94.135 $Y=185.5455
Rd25	net9#50	net9#36	2.205690	$MET3	$W=1.46e-06
+ $X=80.868 $Y=173.03
Rd26	net1#174	net1#183	1.643069	$MET3	$W=1.46e-06
+ $X=95.915 $Y=219.9455
Rd27	net1#183	net1#195	0.915370	$MET3	$W=1.46e-06
+ $X=95.915 $Y=202.1055
Rd28	net1#195	net1#166	1.643069	$MET3	$W=1.46e-06
+ $X=95.915 $Y=184.2655
Rd31	DEL#171	DEL#167	1.778376	$MET3	$W=1.46e-06
+ $X=97.695 $Y=176.062
Rd32	DEL#167	DEL#175	0.193110	$MET3	$W=1.46e-06
+ $X=94.1 $Y=155.9065
Rd33	DEL#175	DEL#180	1.832654	$MET3	$W=1.46e-06
+ $X=97.725 $Y=141.588
Rd34	C#18	C#15	10.862122	$MET3	$W=4.6e-07
+ $X=124.435 $Y=151.665
Rd35	GNDA#718	GNDA#705	1.696000	$MET3	$W=2.96e-06
+ $X=280.475 $Y=43.6355
Rd36	DEL#176	DEL#184	1.696000	$MET3	$W=2.96e-06
+ $X=283.755 $Y=98.1955
Re1	BIAS#97	BIAS#79	0.986329	$MET2	$W=1.46e-06
+ $X=62.7755 $Y=167.375
Re2	BIAS#79	BIAS#65	0.316274	$MET2	$W=1.46e-06
+ $X=50.3155 $Y=167.375
Re3	BIAS#65	BIAS#54	0.316274	$MET2	$W=1.46e-06
+ $X=44.0755 $Y=167.375
Re4	BIAS#54	BIAS#40	0.316274	$MET2	$W=1.46e-06
+ $X=37.8355 $Y=167.375
Re5	BIAS#40	BIAS#26	0.316274	$MET2	$W=1.46e-06
+ $X=31.5955 $Y=167.375
Re6	BIAS#26	BIAS#103	0.670055	$MET2	$W=1.46e-06
+ $X=22.2555 $Y=167.375
Re7	GNDA#677	GNDA#118	0.094781	$MET2	$W=1.46e-06
+ $X=69.2305 $Y=154.245
Re8	GNDA#118	GNDA#122	0.280795	$MET2	$W=1.46e-06
+ $X=65.9155 $Y=154.245
Re9	GNDA#122	GNDA#126	0.035479	$MET2	$W=1.46e-06
+ $X=63.145 $Y=154.245
Re10	GNDA#126	GNDA#116	0.280795	$MET2	$W=1.46e-06
+ $X=59.6755 $Y=154.245
Re11	GNDA#116	GNDA#69	0.316274	$MET2	$W=1.46e-06
+ $X=53.7855 $Y=154.245
Re12	GNDA#69	GNDA#63	0.316274	$MET2	$W=1.46e-06
+ $X=47.5455 $Y=154.245
Re13	GNDA#63	GNDA#57	0.316274	$MET2	$W=1.46e-06
+ $X=41.3055 $Y=154.245
Re14	GNDA#57	GNDA#51	0.316274	$MET2	$W=1.46e-06
+ $X=35.0655 $Y=154.245
Re15	GNDA#51	GNDA#45	0.316274	$MET2	$W=1.46e-06
+ $X=28.8255 $Y=154.245
Re16	GNDA#45	GNDA#39	0.035479	$MET2	$W=1.46e-06
+ $X=25.705 $Y=154.245
Re17	GNDA#39	GNDA#31	0.280795	$MET2	$W=1.46e-06
+ $X=22.2355 $Y=154.245
Re18	GNDA#31	GNDA#689	0.094781	$MET2	$W=1.46e-06
+ $X=18.9205 $Y=154.245
Re19	BIAS#104	BIAS#93	1.045055	$MET2	$W=1.46e-06
+ $X=65.8955 $Y=152.405
Re20	BIAS#93	BIAS#86	0.175877	$MET2	$W=1.46e-06
+ $X=57.9405 $Y=152.405
Re21	BIAS#86	BIAS#83	0.140397	$MET2	$W=1.46e-06
+ $X=54.8205 $Y=152.405
Re22	BIAS#83	BIAS#72	0.175877	$MET2	$W=1.46e-06
+ $X=51.7005 $Y=152.405
Re23	BIAS#72	BIAS#69	0.140397	$MET2	$W=1.46e-06
+ $X=48.5805 $Y=152.405
Re24	BIAS#69	BIAS#61	0.175877	$MET2	$W=1.46e-06
+ $X=45.4605 $Y=152.405
Re25	BIAS#61	BIAS#58	0.140397	$MET2	$W=1.46e-06
+ $X=42.3405 $Y=152.405
Re26	BIAS#58	BIAS#47	0.175877	$MET2	$W=1.46e-06
+ $X=39.2205 $Y=152.405
Re27	BIAS#47	BIAS#44	0.140397	$MET2	$W=1.46e-06
+ $X=36.1005 $Y=152.405
Re28	BIAS#44	BIAS#33	0.175877	$MET2	$W=1.46e-06
+ $X=32.9805 $Y=152.405
Re29	BIAS#33	BIAS#30	0.140397	$MET2	$W=1.46e-06
+ $X=29.8605 $Y=152.405
Re30	BIAS#30	BIAS#116	1.045055	$MET2	$W=1.46e-06
+ $X=22.2555 $Y=152.405
Re31	BIAS#117	BIAS#96	0.529658	$MET2	$W=1.46e-06
+ $X=67.2805 $Y=137.415
Re32	BIAS#96	BIAS#89	0.316274	$MET2	$W=1.46e-06
+ $X=59.3255 $Y=137.415
Re33	BIAS#89	BIAS#75	0.316274	$MET2	$W=1.46e-06
+ $X=53.0855 $Y=137.415
Re34	BIAS#75	BIAS#50	0.632548	$MET2	$W=1.46e-06
+ $X=43.7255 $Y=137.415
Re35	BIAS#50	BIAS#36	0.316274	$MET2	$W=1.46e-06
+ $X=34.3655 $Y=137.415
Re36	BIAS#36	BIAS#123	0.810452	$MET2	$W=1.46e-06
+ $X=23.6405 $Y=137.415
Re37	GNDA#690	GNDA#131	0.094781	$MET2	$W=1.46e-06
+ $X=69.2305 $Y=139.255
Re38	GNDA#131	GNDA#78	0.280795	$MET2	$W=1.46e-06
+ $X=65.9155 $Y=139.255
Re39	GNDA#78	GNDA#75	0.316274	$MET2	$W=1.46e-06
+ $X=60.0255 $Y=139.255
Re40	GNDA#75	GNDA#72	0.316274	$MET2	$W=1.46e-06
+ $X=53.7855 $Y=139.255
Re41	GNDA#72	GNDA#66	0.316274	$MET2	$W=1.46e-06
+ $X=47.5455 $Y=139.255
Re42	GNDA#66	GNDA#60	0.316274	$MET2	$W=1.46e-06
+ $X=41.3055 $Y=139.255
Re43	GNDA#60	GNDA#54	0.316274	$MET2	$W=1.46e-06
+ $X=35.0655 $Y=139.255
Re44	GNDA#54	GNDA#48	0.316274	$MET2	$W=1.46e-06
+ $X=28.8255 $Y=139.255
Re45	GNDA#48	GNDA#42	0.035479	$MET2	$W=1.46e-06
+ $X=25.705 $Y=139.255
Re46	GNDA#42	GNDA#36	0.280795	$MET2	$W=1.46e-06
+ $X=22.2355 $Y=139.255
Re47	GNDA#36	GNDA#701	0.094781	$MET2	$W=1.46e-06
+ $X=18.9205 $Y=139.255
Re48	GNDA#701	GNDA#307	0.619255	$MET2	$W=1.46e-06
+ $X=12.2855 $Y=139.255
Re49	BG_REF#4	BG_REF	1.367913	$MET2	$W=4.6e-07
+ $X=80.671 $Y=167.7
Re50	net9#34	net9#36	1.540801	$MET2	$W=1.46e-06
+ $X=82.4975 $Y=159.58
Re51	net9#36	net9#32	1.547390	$MET2	$W=1.46e-06
+ $X=81.605 $Y=159.58
Re52	GNDA#511	GNDA#513	3.316274	$MET2	$W=1.46e-06
+ $X=82.4905 $Y=139.43
Re53	net10#16	net10#18	2.714392	$MET2	$W=1.46e-06
+ $X=79.5805 $Y=135.87
Re54	net10#18	net10#9	0.669038	$MET2	$W=4.6e-07
+ $X=79.65 $Y=146.82
Re55	net10#18	net10#6	2.275461	$MET2	$W=1.46e-06
+ $X=77.44 $Y=152.06
Re56	net10#9	net10#13	2.128826	$MET2	$W=4.6e-07
+ $X=85.2595 $Y=146.82
Re57	DEL#167	DEL#100	1.000000	$MET2	$W=4.8e-06
+ $X=94.095 $Y=158.935
Re58	A#8	A#13	3.016619	$MET2	$W=1.46e-06
+ $X=93.14 $Y=144.342
Re59	A#13	A#6	1.648639	$MET2	$W=1.46e-06
+ $X=85.7775 $Y=156.02
Re60	A#13	A#9	2.918198	$MET2	$W=4.6e-07
+ $X=87.875 $Y=159.31
Re61	net1#166	net1#165	1.046021	$MET2	$W=9.6e-07
+ $X=88.8705 $Y=175.455
Re62	net1#165	net1#168	0.523517	$MET2	$W=9.6e-07
+ $X=79.158 $Y=175.455
Re63	net1#168	net1#143	0.424079	$MET2	$W=9.6e-07
+ $X=72.4075 $Y=175.455
Re64	net1#143	net1#110	0.962000	$MET2	$W=9.6e-07
+ $X=63.6255 $Y=175.455
Re65	net1#110	net1#80	0.962000	$MET2	$W=9.6e-07
+ $X=51.1455 $Y=175.455
Re66	net1#80	net1#172	1.816854	$MET2	$W=9.6e-07
+ $X=33.3805 $Y=175.455
Re67	net1#168	net1#62	5.069812	$MET2	$W=1.46e-06
+ $X=75.46 $Y=155.64
Re68	net9#38	net9#39	5.748875	$MET2	$W=9.6e-07
+ $X=56.8455 $Y=230.035
Re69	net1#174	net1#147	1.740542	$MET2	$W=9.6e-07
+ $X=84.3655 $Y=228.755
Re70	net1#147	net1#129	0.481000	$MET2	$W=9.6e-07
+ $X=70.2155 $Y=228.755
Re71	net1#129	net1#114	0.481000	$MET2	$W=9.6e-07
+ $X=63.9755 $Y=228.755
Re72	net1#114	net1#96	0.481000	$MET2	$W=9.6e-07
+ $X=57.7355 $Y=228.755
Re73	net1#96	net1#84	0.481000	$MET2	$W=9.6e-07
+ $X=51.4955 $Y=228.755
Re74	net1#84	net1#66	0.481000	$MET2	$W=9.6e-07
+ $X=45.2555 $Y=228.755
Re75	net1#66	net1#48	0.481000	$MET2	$W=9.6e-07
+ $X=39.0155 $Y=228.755
Re76	net1#48	net1#182	1.122333	$MET2	$W=9.6e-07
+ $X=28.8755 $Y=228.755
Re77	VDDA#225	VDDA#158	0.607792	$MET2	$W=9.6e-07
+ $X=89.4455 $Y=213.695
Re78	VDDA#158	VDDA#151	0.213521	$MET2	$W=9.6e-07
+ $X=87.2005 $Y=213.695
Re79	VDDA#151	VDDA#137	0.213521	$MET2	$W=9.6e-07
+ $X=84.4305 $Y=213.695
Re80	VDDA#137	VDDA#131	0.053958	$MET2	$W=9.6e-07
+ $X=83.045 $Y=213.695
Re81	VDDA#131	VDDA#128	0.213521	$MET2	$W=9.6e-07
+ $X=80.9605 $Y=213.695
Re82	VDDA#128	VDDA#114	0.213521	$MET2	$W=9.6e-07
+ $X=78.1905 $Y=213.695
Re83	VDDA#114	VDDA#105	0.481000	$MET2	$W=9.6e-07
+ $X=73.6855 $Y=213.695
Re84	VDDA#105	VDDA#96	0.481000	$MET2	$W=9.6e-07
+ $X=67.4455 $Y=213.695
Re85	VDDA#96	VDDA#87	0.481000	$MET2	$W=9.6e-07
+ $X=61.2055 $Y=213.695
Re86	VDDA#87	VDDA#78	0.481000	$MET2	$W=9.6e-07
+ $X=54.9655 $Y=213.695
Re87	VDDA#78	VDDA#69	0.481000	$MET2	$W=9.6e-07
+ $X=48.7255 $Y=213.695
Re88	VDDA#69	VDDA#60	0.481000	$MET2	$W=9.6e-07
+ $X=42.4855 $Y=213.695
Re89	VDDA#60	VDDA#51	0.481000	$MET2	$W=9.6e-07
+ $X=36.2455 $Y=213.695
Re90	VDDA#51	VDDA#42	0.053958	$MET2	$W=9.6e-07
+ $X=33.125 $Y=213.695
Re91	VDDA#42	VDDA#35	0.213521	$MET2	$W=9.6e-07
+ $X=31.0405 $Y=213.695
Re92	VDDA#35	VDDA#21	0.213521	$MET2	$W=9.6e-07
+ $X=28.2705 $Y=213.695
Re93	VDDA#21	VDDA#242	0.607792	$MET2	$W=9.6e-07
+ $X=26.0255 $Y=213.695
Re94	net9#40	net9#27	2.139812	$MET2	$W=9.6e-07
+ $X=84.8605 $Y=212.415
Re95	net9#27	net9#21	0.962000	$MET2	$W=9.6e-07
+ $X=69.8655 $Y=212.415
Re96	net9#21	net9#12	0.962000	$MET2	$W=9.6e-07
+ $X=57.3855 $Y=212.415
Re97	net9#12	net9#3	0.962000	$MET2	$W=9.6e-07
+ $X=44.9055 $Y=212.415
Re98	net9#3	net9#45	2.223063	$MET2	$W=9.6e-07
+ $X=29.3705 $Y=212.415
Re99	net1#183	net1#151	2.490541	$MET2	$W=9.6e-07
+ $X=84.3655 $Y=211.135
Re100	net1#151	net1#140	0.267479	$MET2	$W=9.6e-07
+ $X=71.6005 $Y=211.135
Re101	net1#140	net1#133	0.213521	$MET2	$W=9.6e-07
+ $X=68.4805 $Y=211.135
Re102	net1#133	net1#118	0.481000	$MET2	$W=9.6e-07
+ $X=63.9755 $Y=211.135
Re103	net1#118	net1#107	0.267479	$MET2	$W=9.6e-07
+ $X=59.1205 $Y=211.135
Re104	net1#107	net1#100	0.213521	$MET2	$W=9.6e-07
+ $X=56.0005 $Y=211.135
Re105	net1#100	net1#88	0.481000	$MET2	$W=9.6e-07
+ $X=51.4955 $Y=211.135
Re106	net1#88	net1#77	0.267479	$MET2	$W=9.6e-07
+ $X=46.6405 $Y=211.135
Re107	net1#77	net1#70	0.213521	$MET2	$W=9.6e-07
+ $X=43.5205 $Y=211.135
Re108	net1#70	net1#52	0.481000	$MET2	$W=9.6e-07
+ $X=39.0155 $Y=211.135
Re109	net1#52	net1#194	1.872333	$MET2	$W=9.6e-07
+ $X=28.8755 $Y=211.135
Re110	VDDA#243	VDDA#161	0.607792	$MET2	$W=9.6e-07
+ $X=89.4455 $Y=195.635
Re111	VDDA#161	VDDA#155	0.213521	$MET2	$W=9.6e-07
+ $X=87.2005 $Y=195.635
Re112	VDDA#155	VDDA#140	0.213521	$MET2	$W=9.6e-07
+ $X=84.4305 $Y=195.635
Re113	VDDA#140	VDDA#134	0.053958	$MET2	$W=9.6e-07
+ $X=83.045 $Y=195.635
Re114	VDDA#134	VDDA#117	0.427042	$MET2	$W=9.6e-07
+ $X=79.5755 $Y=195.635
Re115	VDDA#117	VDDA#108	0.481000	$MET2	$W=9.6e-07
+ $X=73.6855 $Y=195.635
Re116	VDDA#108	VDDA#99	0.481000	$MET2	$W=9.6e-07
+ $X=67.4455 $Y=195.635
Re117	VDDA#99	VDDA#90	0.481000	$MET2	$W=9.6e-07
+ $X=61.2055 $Y=195.635
Re118	VDDA#90	VDDA#81	0.481000	$MET2	$W=9.6e-07
+ $X=54.9655 $Y=195.635
Re119	VDDA#81	VDDA#72	0.481000	$MET2	$W=9.6e-07
+ $X=48.7255 $Y=195.635
Re120	VDDA#72	VDDA#63	0.481000	$MET2	$W=9.6e-07
+ $X=42.4855 $Y=195.635
Re121	VDDA#63	VDDA#54	0.481000	$MET2	$W=9.6e-07
+ $X=36.2455 $Y=195.635
Re122	VDDA#54	VDDA#45	0.053958	$MET2	$W=9.6e-07
+ $X=33.125 $Y=195.635
Re123	VDDA#45	VDDA#39	0.213521	$MET2	$W=9.6e-07
+ $X=31.0405 $Y=195.635
Re124	VDDA#39	VDDA#24	0.213521	$MET2	$W=9.6e-07
+ $X=28.2705 $Y=195.635
Re125	VDDA#24	VDDA#259	0.607792	$MET2	$W=9.6e-07
+ $X=26.0255 $Y=195.635
Re126	net9#46	net9#18	3.582812	$MET2	$W=9.6e-07
+ $X=75.5005 $Y=194.355
Re127	net9#18	net9#9	0.962000	$MET2	$W=9.6e-07
+ $X=51.1455 $Y=194.355
Re128	net9#9	net9#49	2.704062	$MET2	$W=9.6e-07
+ $X=32.4905 $Y=194.355
Re129	net1#195	net1#162	2.009542	$MET2	$W=9.6e-07
+ $X=87.4855 $Y=193.075
Re130	net1#162	net1#158	0.267479	$MET2	$W=9.6e-07
+ $X=77.8405 $Y=193.075
Re131	net1#158	net1#155	0.213521	$MET2	$W=9.6e-07
+ $X=74.7205 $Y=193.075
Re132	net1#155	net1#137	0.481000	$MET2	$W=9.6e-07
+ $X=70.2155 $Y=193.075
Re133	net1#137	net1#125	0.267479	$MET2	$W=9.6e-07
+ $X=65.3605 $Y=193.075
Re134	net1#125	net1#122	0.213521	$MET2	$W=9.6e-07
+ $X=62.2405 $Y=193.075
Re135	net1#122	net1#104	0.481000	$MET2	$W=9.6e-07
+ $X=57.7355 $Y=193.075
Re136	net1#104	net1#92	0.481000	$MET2	$W=9.6e-07
+ $X=51.4955 $Y=193.075
Re137	net1#92	net1#74	0.481000	$MET2	$W=9.6e-07
+ $X=45.2555 $Y=193.075
Re138	net1#74	net1#59	0.267479	$MET2	$W=9.6e-07
+ $X=40.4005 $Y=193.075
Re139	net1#59	net1#56	0.213521	$MET2	$W=9.6e-07
+ $X=37.2805 $Y=193.075
Re140	net1#56	net1#207	1.872333	$MET2	$W=9.6e-07
+ $X=28.8755 $Y=193.075
Re141	DEL#171	DEL#98	2.895229	$MET2	$W=9.6e-07
+ $X=83.5205 $Y=191.795
Re142	DEL#98	DEL#79	3.693000	$MET2	$W=9.6e-07
+ $X=60.5055 $Y=191.795
Re143	VDDA#260	VDDA#164	0.232792	$MET2	$W=9.6e-07
+ $X=89.4455 $Y=178.015
Re144	VDDA#164	VDDA#143	0.427042	$MET2	$W=9.6e-07
+ $X=85.8155 $Y=178.015
Re145	VDDA#143	VDDA#120	0.481000	$MET2	$W=9.6e-07
+ $X=79.9255 $Y=178.015
Re146	VDDA#120	VDDA#111	0.481000	$MET2	$W=9.6e-07
+ $X=73.6855 $Y=178.015
Re147	VDDA#111	VDDA#102	0.481000	$MET2	$W=9.6e-07
+ $X=67.4455 $Y=178.015
Re148	VDDA#102	VDDA#93	0.481000	$MET2	$W=9.6e-07
+ $X=61.2055 $Y=178.015
Re149	VDDA#93	VDDA#84	0.481000	$MET2	$W=9.6e-07
+ $X=54.9655 $Y=178.015
Re150	VDDA#84	VDDA#75	0.481000	$MET2	$W=9.6e-07
+ $X=48.7255 $Y=178.015
Re151	VDDA#75	VDDA#66	0.481000	$MET2	$W=9.6e-07
+ $X=42.4855 $Y=178.015
Re152	VDDA#66	VDDA#57	0.481000	$MET2	$W=9.6e-07
+ $X=36.2455 $Y=178.015
Re153	VDDA#57	VDDA#48	0.053958	$MET2	$W=9.6e-07
+ $X=33.125 $Y=178.015
Re154	VDDA#48	VDDA#27	0.427042	$MET2	$W=9.6e-07
+ $X=29.6555 $Y=178.015
Re155	VDDA#27	VDDA#273	0.232792	$MET2	$W=9.6e-07
+ $X=26.0255 $Y=178.015
Re156	net9#50	net9#30	2.139812	$MET2	$W=9.6e-07
+ $X=84.8605 $Y=176.735
Re157	net9#30	net9#24	0.962000	$MET2	$W=9.6e-07
+ $X=69.8655 $Y=176.735
Re158	net9#24	net9#15	0.962000	$MET2	$W=9.6e-07
+ $X=57.3855 $Y=176.735
Re159	net9#15	net9#6	0.962000	$MET2	$W=9.6e-07
+ $X=44.9055 $Y=176.735
Re160	net9#6	net9#55	1.473063	$MET2	$W=9.6e-07
+ $X=29.3705 $Y=176.735
Re161	C#15	C#8	3.353848	$MET2	$W=4.6e-07
+ $X=91.019 $Y=166.92
Re162	DEL#102	DEL#175	5.541279	$MET2	$W=3e-07
+ $X=96.495 $Y=156.663
Re163	POR_OUT_L	POR_OUT_L#2	1.762825	$MET2	$W=4.6e-07
+ $X=108.6075 $Y=157.725
Re164	GNDA#705	GNDA#229	0.057750	$MET2	$W=2.96e-06
+ $X=280.475 $Y=14.715
Re165	GNDA#229	GNDA#215	1.263500	$MET2	$W=2.96e-06
+ $X=252.8955 $Y=14.715
Re166	GNDA#215	GNDA#201	0.061500	$MET2	$W=2.96e-06
+ $X=227.625 $Y=14.715
Re167	GNDA#201	GNDA#187	1.263500	$MET2	$W=2.96e-06
+ $X=199.8955 $Y=14.715
Re168	GNDA#187	GNDA#173	0.061500	$MET2	$W=2.96e-06
+ $X=174.625 $Y=14.715
Re169	GNDA#173	GNDA#617	0.695117	$MET2	$W=2.96e-06
+ $X=158.858 $Y=14.715
Re170	GNDA#617	GNDA#159	0.487867	$MET2	$W=2.96e-06
+ $X=130.7875 $Y=14.715
Re171	GNDA#159	GNDA#145	0.061500	$MET2	$W=2.96e-06
+ $X=121.625 $Y=14.715
Re172	GNDA#145	GNDA#106	1.263500	$MET2	$W=2.96e-06
+ $X=93.8955 $Y=14.715
Re173	GNDA#106	GNDA#92	0.061500	$MET2	$W=2.96e-06
+ $X=68.625 $Y=14.715
Re174	GNDA#92	GNDA#26	1.263500	$MET2	$W=2.96e-06
+ $X=40.8955 $Y=14.715
Re175	GNDA#26	GNDA#717	0.057750	$MET2	$W=2.96e-06
+ $X=15.625 $Y=14.715
Re176	GNDA#718	GNDA#222	0.057750	$MET2	$W=2.96e-06
+ $X=280.475 $Y=72.555
Re177	GNDA#222	GNDA#208	1.263500	$MET2	$W=2.96e-06
+ $X=252.8955 $Y=72.555
Re178	GNDA#208	GNDA#194	0.061500	$MET2	$W=2.96e-06
+ $X=227.625 $Y=72.555
Re179	GNDA#194	GNDA#180	1.263500	$MET2	$W=2.96e-06
+ $X=199.8955 $Y=72.555
Re180	GNDA#180	GNDA#166	0.061500	$MET2	$W=2.96e-06
+ $X=174.625 $Y=72.555
Re181	GNDA#166	GNDA#152	1.263500	$MET2	$W=2.96e-06
+ $X=146.8955 $Y=72.555
Re182	GNDA#152	GNDA#138	0.061500	$MET2	$W=2.96e-06
+ $X=121.625 $Y=72.555
Re183	GNDA#138	GNDA#99	1.263500	$MET2	$W=2.96e-06
+ $X=93.8955 $Y=72.555
Re184	GNDA#99	GNDA#85	0.061500	$MET2	$W=2.96e-06
+ $X=68.625 $Y=72.555
Re185	GNDA#85	GNDA#19	1.263500	$MET2	$W=2.96e-06
+ $X=40.8955 $Y=72.555
Re186	GNDA#19	GNDA#729	0.057750	$MET2	$W=2.96e-06
+ $X=15.625 $Y=72.555
Re187	DEL#176	DEL#158	0.771500	$MET2	$W=2.96e-06
+ $X=267.6755 $Y=127.115
Re188	DEL#158	DEL#142	1.325000	$MET2	$W=2.96e-06
+ $X=226.3955 $Y=127.115
Re189	DEL#142	DEL#126	1.325000	$MET2	$W=2.96e-06
+ $X=173.3955 $Y=127.115
Re190	DEL#126	DEL#180	1.229875	$MET2	$W=2.96e-06
+ $X=122.978 $Y=127.115
Re191	DEL#180	DEL#110	0.095125	$MET2	$W=2.96e-06
+ $X=95.118 $Y=127.115
Re192	DEL#110	DEL#87	1.325000	$MET2	$W=2.96e-06
+ $X=67.3955 $Y=127.115
Re193	DEL#87	DEL#183	0.771500	$MET2	$W=2.96e-06
+ $X=26.1155 $Y=127.115
Re194	DEL#184	DEL#166	0.771500	$MET2	$W=2.96e-06
+ $X=267.6755 $Y=69.275
Re195	DEL#166	DEL#150	1.325000	$MET2	$W=2.96e-06
+ $X=226.3955 $Y=69.275
Re196	DEL#150	DEL#134	1.325000	$MET2	$W=2.96e-06
+ $X=173.3955 $Y=69.275
Re197	DEL#134	DEL#118	1.325000	$MET2	$W=2.96e-06
+ $X=120.3955 $Y=69.275
Re198	DEL#118	DEL#95	1.325000	$MET2	$W=2.96e-06
+ $X=67.3955 $Y=69.275
Re199	DEL#95	DEL#190	0.771500	$MET2	$W=2.96e-06
+ $X=26.1155 $Y=69.275
Re200	VDDA#216	VDDA#275	0.541301	$MET2	$W=4.96e-06
+ $X=102.805 $Y=169.1445
Re201	VDDA#275	VDDA#165	0.848076	$MET2	$W=4.96e-06
+ $X=102.805 $Y=207.0725
Re202	VDDA#275	VDDA#223	5.870800	$MET2	$W=2.96e-06
+ $X=127.625 $Y=178.19
Re203	VDDA#165	VDDA#278	0.066230	$MET2	$W=9.96e-06
+ $X=100.66 $Y=236.505
Re204	VDDA#278	VDDA#279	0.070401	$MET2	$W=4.96e-06
+ $X=91.605 $Y=233.135
Re205	VDDA#279	VDDA#147	0.438604	$MET2	$W=9.6e-07
+ $X=87.58 $Y=231.315
Re206	VDDA#147	VDDA#124	0.481000	$MET2	$W=9.6e-07
+ $X=82.6955 $Y=231.315
Re207	VDDA#124	VDDA#31	3.848000	$MET2	$W=9.6e-07
+ $X=54.6155 $Y=231.315
Re208	VDDA#31	VDDA#283	0.438604	$MET2	$W=9.6e-07
+ $X=27.8905 $Y=231.315
Re211	VDDA#283	VDDA#286	0.070401	$MET2	$W=4.96e-06
+ $X=23.865 $Y=233.135
Re213	VDDA#286	VDDA	0.172921	$MET2	$W=9.96e-06
+ $X=36.822 $Y=239.455
Re214	VDDA	VDDA#288	0.154756	$MET2	$W=9.96e-06
+ $X=47.28 $Y=239.445
Re215	VDDA#288	VDDA#278	0.172277	$MET2	$W=9.96e-06
+ $X=89.105 $Y=239.455
Re216	C#11	C#18	0.291851	$MET2	$W=1.82e-06
+ $X=124.16 $Y=136.1725
Re217	C#18	C#14	15.434910	$MET2	$W=1.46e-06
+ $X=271.5545 $Y=131.65
Rf1	GNDA#13	GNDA#14	2.378224	$MET1	$W=3.2e-07
+ $X=15.625 $Y=122.205
Rf2	GNDA#14	GNDA#15	2.148781	$MET1	$W=3.2e-07
+ $X=15.625 $Y=110.6905
Rf3	GNDA#15	GNDA#16	2.153594	$MET1	$W=3.2e-07
+ $X=15.625 $Y=101.7605
Rf4	GNDA#16	GNDA#17	2.165625	$MET1	$W=3.2e-07
+ $X=15.625 $Y=92.788
Rf5	GNDA#17	GNDA#18	2.171641	$MET1	$W=3.2e-07
+ $X=15.625 $Y=83.763
Rf6	GNDA#18	GNDA#19	2.360984	$MET1	$W=3.2e-07
+ $X=15.625 $Y=74.4155
Rf7	GNDA#13	GNDA#14	0.394737	$MET1	$W=3.2e-07
+ $X=15.625 $Y=115.155
Rf8	GNDA#13	GNDA#15	0.394737	$MET1	$W=3.2e-07
+ $X=15.625 $Y=106.225
Rf9	GNDA#13	GNDA#16	0.394737	$MET1	$W=3.2e-07
+ $X=15.625 $Y=97.275
Rf10	GNDA#13	GNDA#17	0.394737	$MET1	$W=3.2e-07
+ $X=15.625 $Y=88.275
Rf11	GNDA#13	GNDA#18	0.394737	$MET1	$W=3.2e-07
+ $X=15.625 $Y=79.25
Rf12	GNDA#20	GNDA#21	2.378224	$MET1	$W=3.2e-07
+ $X=15.625 $Y=64.365
Rf13	GNDA#21	GNDA#22	2.148781	$MET1	$W=3.2e-07
+ $X=15.625 $Y=52.8505
Rf14	GNDA#22	GNDA#23	2.153594	$MET1	$W=3.2e-07
+ $X=15.625 $Y=43.9205
Rf15	GNDA#23	GNDA#24	2.165625	$MET1	$W=3.2e-07
+ $X=15.625 $Y=34.948
Rf16	GNDA#24	GNDA#25	2.171641	$MET1	$W=3.2e-07
+ $X=15.625 $Y=25.923
Rf17	GNDA#25	GNDA#26	2.360984	$MET1	$W=3.2e-07
+ $X=15.625 $Y=16.5755
Rf18	GNDA#20	GNDA#21	0.394737	$MET1	$W=3.2e-07
+ $X=15.625 $Y=57.315
Rf19	GNDA#20	GNDA#22	0.394737	$MET1	$W=3.2e-07
+ $X=15.625 $Y=48.385
Rf20	GNDA#20	GNDA#23	0.394737	$MET1	$W=3.2e-07
+ $X=15.625 $Y=39.435
Rf21	GNDA#20	GNDA#24	0.394737	$MET1	$W=3.2e-07
+ $X=15.625 $Y=30.435
Rf22	GNDA#20	GNDA#25	0.394737	$MET1	$W=3.2e-07
+ $X=15.625 $Y=21.41
Rf23	GNDA#1	GNDA#29	1.629245	$MET1	$W=3.2e-07
+ $X=19.465 $Y=165.8605
Rf24	GNDA#29	GNDA#30	1.209742	$MET1	$W=3.2e-07
+ $X=19.465 $Y=164.318
Rf25	GNDA#30	GNDA#31	2.885398	$MET1	$W=3.2e-07
+ $X=19.465 $Y=155.3455
Rf26	GNDA#28	GNDA#29	2.500000	$MET1	$W=3.2e-07
+ $X=19.465 $Y=165.03
Rf27	GNDA#28	GNDA#30	0.416667	$MET1	$W=3.2e-07
+ $X=19.465 $Y=160.0025
Rf28	GNDA#3	GNDA#34	1.629245	$MET1	$W=3.2e-07
+ $X=19.465 $Y=150.8905
Rf29	GNDA#34	GNDA#35	1.209742	$MET1	$W=3.2e-07
+ $X=19.465 $Y=149.348
Rf30	GNDA#35	GNDA#36	2.890211	$MET1	$W=3.2e-07
+ $X=19.465 $Y=140.3655
Rf31	GNDA#33	GNDA#34	2.500000	$MET1	$W=3.2e-07
+ $X=19.465 $Y=150.06
Rf32	GNDA#33	GNDA#35	0.416667	$MET1	$W=3.2e-07
+ $X=19.465 $Y=145.0325
Rf33	GNDA#37	GNDA#38	3.709742	$MET1	$W=3.2e-07
+ $X=25.005 $Y=165.03
Rf34	GNDA#38	GNDA#39	2.885398	$MET1	$W=3.2e-07
+ $X=25.005 $Y=155.3455
Rf35	GNDA#37	GNDA#38	0.416667	$MET1	$W=3.2e-07
+ $X=25.005 $Y=160.0025
Rf36	GNDA#40	GNDA#41	3.709742	$MET1	$W=3.2e-07
+ $X=25.005 $Y=150.06
Rf37	GNDA#41	GNDA#42	2.890211	$MET1	$W=3.2e-07
+ $X=25.005 $Y=140.3655
Rf38	GNDA#40	GNDA#41	0.416667	$MET1	$W=3.2e-07
+ $X=25.005 $Y=145.0325
Rf39	GNDA#43	GNDA#44	3.709742	$MET1	$W=3.2e-07
+ $X=25.705 $Y=165.03
Rf40	GNDA#44	GNDA#45	2.885398	$MET1	$W=3.2e-07
+ $X=25.705 $Y=155.3455
Rf41	GNDA#43	GNDA#44	0.416667	$MET1	$W=3.2e-07
+ $X=25.705 $Y=160.0025
Rf42	GNDA#46	GNDA#47	3.709742	$MET1	$W=3.2e-07
+ $X=25.705 $Y=150.06
Rf43	GNDA#47	GNDA#48	2.890211	$MET1	$W=3.2e-07
+ $X=25.705 $Y=140.3655
Rf44	GNDA#46	GNDA#47	0.416667	$MET1	$W=3.2e-07
+ $X=25.705 $Y=145.0325
Rf45	VDDA#19	VDDA#20	3.709742	$MET1	$W=3.2e-07
+ $X=26.885 $Y=225.12
Rf46	VDDA#20	VDDA#21	3.789398	$MET1	$W=3.2e-07
+ $X=26.885 $Y=214.9855
Rf47	VDDA#19	VDDA#20	0.416667	$MET1	$W=3.2e-07
+ $X=26.885 $Y=220.0925
Rf48	VDDA#22	VDDA#23	3.709742	$MET1	$W=3.2e-07
+ $X=26.885 $Y=207.06
Rf49	VDDA#23	VDDA#24	3.789398	$MET1	$W=3.2e-07
+ $X=26.885 $Y=196.9255
Rf50	VDDA#22	VDDA#23	0.416667	$MET1	$W=3.2e-07
+ $X=26.885 $Y=202.0325
Rf51	VDDA#25	VDDA#26	3.709742	$MET1	$W=3.2e-07
+ $X=26.885 $Y=189
Rf52	VDDA#26	VDDA#27	3.683523	$MET1	$W=3.2e-07
+ $X=26.885 $Y=179.0855
Rf53	VDDA#25	VDDA#26	0.416667	$MET1	$W=3.2e-07
+ $X=26.885 $Y=183.9725
Rf56	BIAS#1	BIAS#26	1.810406	$MET1	$W=3.2e-07
+ $X=28.475 $Y=166.465
Rf59	BIAS#3	BIAS#30	1.810406	$MET1	$W=3.2e-07
+ $X=28.475 $Y=151.495
Rf60	BIAS#31	BIAS#32	3.709742	$MET1	$W=3.2e-07
+ $X=31.245 $Y=165.03
Rf61	BIAS#32	BIAS#33	3.328148	$MET1	$W=3.2e-07
+ $X=31.245 $Y=154.4255
Rf62	BIAS#31	BIAS#32	0.416667	$MET1	$W=3.2e-07
+ $X=31.245 $Y=160.0025
Rf63	BIAS#34	BIAS#35	3.709742	$MET1	$W=3.2e-07
+ $X=31.245 $Y=150.06
Rf64	BIAS#35	BIAS#36	3.332961	$MET1	$W=3.2e-07
+ $X=31.245 $Y=139.4455
Rf65	BIAS#34	BIAS#35	0.416667	$MET1	$W=3.2e-07
+ $X=31.245 $Y=145.0325
Rf66	GNDA#49	GNDA#50	3.709742	$MET1	$W=3.2e-07
+ $X=31.945 $Y=165.03
Rf67	GNDA#50	GNDA#51	2.885398	$MET1	$W=3.2e-07
+ $X=31.945 $Y=155.3455
Rf68	GNDA#49	GNDA#50	0.416667	$MET1	$W=3.2e-07
+ $X=31.945 $Y=160.0025
Rf69	GNDA#52	GNDA#53	3.709742	$MET1	$W=3.2e-07
+ $X=31.945 $Y=150.06
Rf70	GNDA#53	GNDA#54	2.890211	$MET1	$W=3.2e-07
+ $X=31.945 $Y=140.3655
Rf71	GNDA#52	GNDA#53	0.416667	$MET1	$W=3.2e-07
+ $X=31.945 $Y=145.0325
Rf74	VDDA#1	VDDA#31	3.486813	$MET1	$W=3.2e-07
+ $X=29.655 $Y=228.61
Rf77	VDDA#3	VDDA#35	3.592688	$MET1	$W=3.2e-07
+ $X=29.655 $Y=210.77
Rf80	VDDA#5	VDDA#39	3.592688	$MET1	$W=3.2e-07
+ $X=29.655 $Y=192.71
Rf81	VDDA#40	VDDA#41	3.709742	$MET1	$W=3.2e-07
+ $X=32.425 $Y=225.12
Rf82	VDDA#41	VDDA#42	3.789398	$MET1	$W=3.2e-07
+ $X=32.425 $Y=214.9855
Rf83	VDDA#40	VDDA#41	0.416667	$MET1	$W=3.2e-07
+ $X=32.425 $Y=220.0925
Rf84	VDDA#43	VDDA#44	3.709742	$MET1	$W=3.2e-07
+ $X=32.425 $Y=207.06
Rf85	VDDA#44	VDDA#45	3.789398	$MET1	$W=3.2e-07
+ $X=32.425 $Y=196.9255
Rf86	VDDA#43	VDDA#44	0.416667	$MET1	$W=3.2e-07
+ $X=32.425 $Y=202.0325
Rf87	VDDA#46	VDDA#47	3.709742	$MET1	$W=3.2e-07
+ $X=32.425 $Y=189
Rf88	VDDA#47	VDDA#48	3.683523	$MET1	$W=3.2e-07
+ $X=32.425 $Y=179.0855
Rf89	VDDA#46	VDDA#47	0.416667	$MET1	$W=3.2e-07
+ $X=32.425 $Y=183.9725
Rf90	VDDA#49	VDDA#50	3.709742	$MET1	$W=3.2e-07
+ $X=33.125 $Y=225.12
Rf91	VDDA#50	VDDA#51	3.789398	$MET1	$W=3.2e-07
+ $X=33.125 $Y=214.9855
Rf92	VDDA#49	VDDA#50	0.416667	$MET1	$W=3.2e-07
+ $X=33.125 $Y=220.0925
Rf93	VDDA#52	VDDA#53	3.709742	$MET1	$W=3.2e-07
+ $X=33.125 $Y=207.06
Rf94	VDDA#53	VDDA#54	3.789398	$MET1	$W=3.2e-07
+ $X=33.125 $Y=196.9255
Rf95	VDDA#52	VDDA#53	0.416667	$MET1	$W=3.2e-07
+ $X=33.125 $Y=202.0325
Rf96	VDDA#55	VDDA#56	3.709742	$MET1	$W=3.2e-07
+ $X=33.125 $Y=189
Rf97	VDDA#56	VDDA#57	3.683523	$MET1	$W=3.2e-07
+ $X=33.125 $Y=179.0855
Rf98	VDDA#55	VDDA#56	0.416667	$MET1	$W=3.2e-07
+ $X=33.125 $Y=183.9725
Rf101	BIAS#5	BIAS#40	1.810406	$MET1	$W=3.2e-07
+ $X=34.715 $Y=166.465
Rf104	BIAS#7	BIAS#44	1.810406	$MET1	$W=3.2e-07
+ $X=34.715 $Y=151.495
Rf105	BIAS#45	BIAS#46	3.709742	$MET1	$W=3.2e-07
+ $X=37.485 $Y=165.03
Rf106	BIAS#46	BIAS#47	3.328148	$MET1	$W=3.2e-07
+ $X=37.485 $Y=154.4255
Rf107	BIAS#45	BIAS#46	0.416667	$MET1	$W=3.2e-07
+ $X=37.485 $Y=160.0025
Rf108	BIAS#48	BIAS#49	3.709742	$MET1	$W=3.2e-07
+ $X=37.485 $Y=150.06
Rf109	BIAS#49	BIAS#50	3.332961	$MET1	$W=3.2e-07
+ $X=37.485 $Y=139.4455
Rf110	BIAS#48	BIAS#49	0.416667	$MET1	$W=3.2e-07
+ $X=37.485 $Y=145.0325
Rf111	GNDA#55	GNDA#56	3.709742	$MET1	$W=3.2e-07
+ $X=38.185 $Y=165.03
Rf112	GNDA#56	GNDA#57	2.885398	$MET1	$W=3.2e-07
+ $X=38.185 $Y=155.3455
Rf113	GNDA#55	GNDA#56	0.416667	$MET1	$W=3.2e-07
+ $X=38.185 $Y=160.0025
Rf114	GNDA#58	GNDA#59	3.709742	$MET1	$W=3.2e-07
+ $X=38.185 $Y=150.06
Rf115	GNDA#59	GNDA#60	2.890211	$MET1	$W=3.2e-07
+ $X=38.185 $Y=140.3655
Rf116	GNDA#58	GNDA#59	0.416667	$MET1	$W=3.2e-07
+ $X=38.185 $Y=145.0325
Rf119	net1	net1#48	2.870812	$MET1	$W=3.2e-07
+ $X=35.895 $Y=227.33
Rf122	net1#3	net1#52	2.976687	$MET1	$W=3.2e-07
+ $X=35.895 $Y=209.49
Rf125	net1#5	net1#56	2.976687	$MET1	$W=3.2e-07
+ $X=35.895 $Y=191.43
Rf126	net9	net9#2	3.709742	$MET1	$W=3.2e-07
+ $X=38.665 $Y=225.12
Rf127	net9#2	net9#3	4.097398	$MET1	$W=3.2e-07
+ $X=38.665 $Y=214.3455
Rf128	net9	net9#2	0.416667	$MET1	$W=3.2e-07
+ $X=38.665 $Y=220.0925
Rf129	net1#57	net1#58	3.709742	$MET1	$W=3.2e-07
+ $X=38.665 $Y=207.06
Rf130	net1#58	net1#59	4.405398	$MET1	$W=3.2e-07
+ $X=38.665 $Y=195.6455
Rf131	net1#57	net1#58	0.416667	$MET1	$W=3.2e-07
+ $X=38.665 $Y=202.0325
Rf132	net9#4	net9#5	3.709742	$MET1	$W=3.2e-07
+ $X=38.665 $Y=189
Rf133	net9#5	net9#6	3.991523	$MET1	$W=3.2e-07
+ $X=38.665 $Y=178.4455
Rf134	net9#4	net9#5	0.416667	$MET1	$W=3.2e-07
+ $X=38.665 $Y=183.9725
Rf135	VDDA#58	VDDA#59	3.709742	$MET1	$W=3.2e-07
+ $X=39.365 $Y=225.12
Rf136	VDDA#59	VDDA#60	3.789398	$MET1	$W=3.2e-07
+ $X=39.365 $Y=214.9855
Rf137	VDDA#58	VDDA#59	0.416667	$MET1	$W=3.2e-07
+ $X=39.365 $Y=220.0925
Rf138	VDDA#61	VDDA#62	3.709742	$MET1	$W=3.2e-07
+ $X=39.365 $Y=207.06
Rf139	VDDA#62	VDDA#63	3.789398	$MET1	$W=3.2e-07
+ $X=39.365 $Y=196.9255
Rf140	VDDA#61	VDDA#62	0.416667	$MET1	$W=3.2e-07
+ $X=39.365 $Y=202.0325
Rf141	VDDA#64	VDDA#65	3.709742	$MET1	$W=3.2e-07
+ $X=39.365 $Y=189
Rf142	VDDA#65	VDDA#66	3.683523	$MET1	$W=3.2e-07
+ $X=39.365 $Y=179.0855
Rf143	VDDA#64	VDDA#65	0.416667	$MET1	$W=3.2e-07
+ $X=39.365 $Y=183.9725
Rf146	BIAS#9	BIAS#54	1.810406	$MET1	$W=3.2e-07
+ $X=40.955 $Y=166.465
Rf149	BIAS#11	BIAS#58	1.810406	$MET1	$W=3.2e-07
+ $X=40.955 $Y=151.495
Rf150	BIAS#59	BIAS#60	3.709742	$MET1	$W=3.2e-07
+ $X=43.725 $Y=165.03
Rf151	BIAS#60	BIAS#61	3.328148	$MET1	$W=3.2e-07
+ $X=43.725 $Y=154.4255
Rf152	BIAS#59	BIAS#60	0.416667	$MET1	$W=3.2e-07
+ $X=43.725 $Y=160.0025
Rf153	net1#60	net1#61	3.709742	$MET1	$W=3.2e-07
+ $X=43.725 $Y=150.06
Rf154	net1#61	net1#62	2.275711	$MET1	$W=3.2e-07
+ $X=43.725 $Y=138.5255
Rf155	net1#60	net1#61	0.416667	$MET1	$W=3.2e-07
+ $X=43.725 $Y=145.0325
Rf156	GNDA#61	GNDA#62	3.709742	$MET1	$W=3.2e-07
+ $X=44.425 $Y=165.03
Rf157	GNDA#62	GNDA#63	2.885398	$MET1	$W=3.2e-07
+ $X=44.425 $Y=155.3455
Rf158	GNDA#61	GNDA#62	0.416667	$MET1	$W=3.2e-07
+ $X=44.425 $Y=160.0025
Rf159	GNDA#64	GNDA#65	3.709742	$MET1	$W=3.2e-07
+ $X=44.425 $Y=150.06
Rf160	GNDA#65	GNDA#66	2.890211	$MET1	$W=3.2e-07
+ $X=44.425 $Y=140.3655
Rf161	GNDA#64	GNDA#65	0.416667	$MET1	$W=3.2e-07
+ $X=44.425 $Y=145.0325
Rf164	net1#7	net1#66	2.870812	$MET1	$W=3.2e-07
+ $X=42.135 $Y=227.33
Rf167	net1#9	net1#70	2.976687	$MET1	$W=3.2e-07
+ $X=42.135 $Y=209.49
Rf170	net1#11	net1#74	2.976687	$MET1	$W=3.2e-07
+ $X=42.135 $Y=191.43
Rf171	net1#75	net1#76	3.709742	$MET1	$W=3.2e-07
+ $X=44.905 $Y=225.12
Rf172	net1#76	net1#77	4.405398	$MET1	$W=3.2e-07
+ $X=44.905 $Y=213.7055
Rf173	net1#75	net1#76	0.416667	$MET1	$W=3.2e-07
+ $X=44.905 $Y=220.0925
Rf174	net9#7	net9#8	3.709742	$MET1	$W=3.2e-07
+ $X=44.905 $Y=207.06
Rf175	net9#8	net9#9	4.097398	$MET1	$W=3.2e-07
+ $X=44.905 $Y=196.2855
Rf176	net9#7	net9#8	0.416667	$MET1	$W=3.2e-07
+ $X=44.905 $Y=202.0325
Rf177	net1#78	net1#79	3.709742	$MET1	$W=3.2e-07
+ $X=44.905 $Y=189
Rf178	net1#79	net1#80	4.299523	$MET1	$W=3.2e-07
+ $X=44.905 $Y=177.8055
Rf179	net1#78	net1#79	0.416667	$MET1	$W=3.2e-07
+ $X=44.905 $Y=183.9725
Rf180	VDDA#67	VDDA#68	3.709742	$MET1	$W=3.2e-07
+ $X=45.605 $Y=225.12
Rf181	VDDA#68	VDDA#69	3.789398	$MET1	$W=3.2e-07
+ $X=45.605 $Y=214.9855
Rf182	VDDA#67	VDDA#68	0.416667	$MET1	$W=3.2e-07
+ $X=45.605 $Y=220.0925
Rf183	VDDA#70	VDDA#71	3.709742	$MET1	$W=3.2e-07
+ $X=45.605 $Y=207.06
Rf184	VDDA#71	VDDA#72	3.789398	$MET1	$W=3.2e-07
+ $X=45.605 $Y=196.9255
Rf185	VDDA#70	VDDA#71	0.416667	$MET1	$W=3.2e-07
+ $X=45.605 $Y=202.0325
Rf186	VDDA#73	VDDA#74	3.709742	$MET1	$W=3.2e-07
+ $X=45.605 $Y=189
Rf187	VDDA#74	VDDA#75	3.683523	$MET1	$W=3.2e-07
+ $X=45.605 $Y=179.0855
Rf188	VDDA#73	VDDA#74	0.416667	$MET1	$W=3.2e-07
+ $X=45.605 $Y=183.9725
Rf191	BIAS#13	BIAS#65	1.810406	$MET1	$W=3.2e-07
+ $X=47.195 $Y=166.465
Rf194	BIAS#15	BIAS#69	1.810406	$MET1	$W=3.2e-07
+ $X=47.195 $Y=151.495
Rf195	BIAS#70	BIAS#71	3.709742	$MET1	$W=3.2e-07
+ $X=49.965 $Y=165.03
Rf196	BIAS#71	BIAS#72	3.328148	$MET1	$W=3.2e-07
+ $X=49.965 $Y=154.4255
Rf197	BIAS#70	BIAS#71	0.416667	$MET1	$W=3.2e-07
+ $X=49.965 $Y=160.0025
Rf198	BIAS#73	BIAS#74	3.709742	$MET1	$W=3.2e-07
+ $X=49.965 $Y=150.06
Rf199	BIAS#74	BIAS#75	3.332961	$MET1	$W=3.2e-07
+ $X=49.965 $Y=139.4455
Rf200	BIAS#73	BIAS#74	0.416667	$MET1	$W=3.2e-07
+ $X=49.965 $Y=145.0325
Rf201	GNDA#67	GNDA#68	3.709742	$MET1	$W=3.2e-07
+ $X=50.665 $Y=165.03
Rf202	GNDA#68	GNDA#69	2.885398	$MET1	$W=3.2e-07
+ $X=50.665 $Y=155.3455
Rf203	GNDA#67	GNDA#68	0.416667	$MET1	$W=3.2e-07
+ $X=50.665 $Y=160.0025
Rf204	GNDA#70	GNDA#71	3.709742	$MET1	$W=3.2e-07
+ $X=50.665 $Y=150.06
Rf205	GNDA#71	GNDA#72	2.890211	$MET1	$W=3.2e-07
+ $X=50.665 $Y=140.3655
Rf206	GNDA#70	GNDA#71	0.416667	$MET1	$W=3.2e-07
+ $X=50.665 $Y=145.0325
Rf209	net1#13	net1#84	2.870812	$MET1	$W=3.2e-07
+ $X=48.375 $Y=227.33
Rf212	net1#15	net1#88	2.976687	$MET1	$W=3.2e-07
+ $X=48.375 $Y=209.49
Rf215	net1#17	net1#92	2.976687	$MET1	$W=3.2e-07
+ $X=48.375 $Y=191.43
Rf216	net9#10	net9#11	3.709742	$MET1	$W=3.2e-07
+ $X=51.145 $Y=225.12
Rf217	net9#11	net9#12	4.097398	$MET1	$W=3.2e-07
+ $X=51.145 $Y=214.3455
Rf218	net9#10	net9#11	0.416667	$MET1	$W=3.2e-07
+ $X=51.145 $Y=220.0925
Rf219	DEL#77	DEL#78	3.709742	$MET1	$W=3.2e-07
+ $X=51.145 $Y=207.06
Rf220	DEL#78	DEL#79	2.463398	$MET1	$W=3.2e-07
+ $X=51.145 $Y=195.0055
Rf221	DEL#77	DEL#78	0.416667	$MET1	$W=3.2e-07
+ $X=51.145 $Y=202.0325
Rf222	net9#13	net9#14	3.709742	$MET1	$W=3.2e-07
+ $X=51.145 $Y=189
Rf223	net9#14	net9#15	3.991523	$MET1	$W=3.2e-07
+ $X=51.145 $Y=178.4455
Rf224	net9#13	net9#14	0.416667	$MET1	$W=3.2e-07
+ $X=51.145 $Y=183.9725
Rf225	VDDA#76	VDDA#77	3.709742	$MET1	$W=3.2e-07
+ $X=51.845 $Y=225.12
Rf226	VDDA#77	VDDA#78	3.789398	$MET1	$W=3.2e-07
+ $X=51.845 $Y=214.9855
Rf227	VDDA#76	VDDA#77	0.416667	$MET1	$W=3.2e-07
+ $X=51.845 $Y=220.0925
Rf228	VDDA#79	VDDA#80	3.709742	$MET1	$W=3.2e-07
+ $X=51.845 $Y=207.06
Rf229	VDDA#80	VDDA#81	3.789398	$MET1	$W=3.2e-07
+ $X=51.845 $Y=196.9255
Rf230	VDDA#79	VDDA#80	0.416667	$MET1	$W=3.2e-07
+ $X=51.845 $Y=202.0325
Rf231	VDDA#82	VDDA#83	3.709742	$MET1	$W=3.2e-07
+ $X=51.845 $Y=189
Rf232	VDDA#83	VDDA#84	3.683523	$MET1	$W=3.2e-07
+ $X=51.845 $Y=179.0855
Rf233	VDDA#82	VDDA#83	0.416667	$MET1	$W=3.2e-07
+ $X=51.845 $Y=183.9725
Rf236	BIAS#17	BIAS#79	1.810406	$MET1	$W=3.2e-07
+ $X=53.435 $Y=166.465
Rf239	BIAS#19	BIAS#83	1.810406	$MET1	$W=3.2e-07
+ $X=53.435 $Y=151.495
Rf240	BIAS#84	BIAS#85	3.709742	$MET1	$W=3.2e-07
+ $X=56.205 $Y=165.03
Rf241	BIAS#85	BIAS#86	3.328148	$MET1	$W=3.2e-07
+ $X=56.205 $Y=154.4255
Rf242	BIAS#84	BIAS#85	0.416667	$MET1	$W=3.2e-07
+ $X=56.205 $Y=160.0025
Rf243	BIAS#87	BIAS#88	3.709742	$MET1	$W=3.2e-07
+ $X=56.205 $Y=150.06
Rf244	BIAS#88	BIAS#89	3.332961	$MET1	$W=3.2e-07
+ $X=56.205 $Y=139.4455
Rf245	BIAS#87	BIAS#88	0.416667	$MET1	$W=3.2e-07
+ $X=56.205 $Y=145.0325
Rf246	GNDA#73	GNDA#74	3.709742	$MET1	$W=3.2e-07
+ $X=56.905 $Y=150.06
Rf247	GNDA#74	GNDA#75	2.890211	$MET1	$W=3.2e-07
+ $X=56.905 $Y=140.3655
Rf248	GNDA#73	GNDA#74	0.416667	$MET1	$W=3.2e-07
+ $X=56.905 $Y=145.0325
Rf251	net1#19	net1#96	2.870812	$MET1	$W=3.2e-07
+ $X=54.615 $Y=227.33
Rf254	net1#21	net1#100	2.976687	$MET1	$W=3.2e-07
+ $X=54.615 $Y=209.49
Rf257	net1#23	net1#104	2.976687	$MET1	$W=3.2e-07
+ $X=54.615 $Y=191.43
Rf258	net1#105	net1#106	3.709742	$MET1	$W=3.2e-07
+ $X=57.385 $Y=225.12
Rf259	net1#106	net1#107	4.405398	$MET1	$W=3.2e-07
+ $X=57.385 $Y=213.7055
Rf260	net1#105	net1#106	0.416667	$MET1	$W=3.2e-07
+ $X=57.385 $Y=220.0925
Rf261	net9#16	net9#17	3.709742	$MET1	$W=3.2e-07
+ $X=57.385 $Y=207.06
Rf262	net9#17	net9#18	4.097398	$MET1	$W=3.2e-07
+ $X=57.385 $Y=196.2855
Rf263	net9#16	net9#17	0.416667	$MET1	$W=3.2e-07
+ $X=57.385 $Y=202.0325
Rf264	net1#108	net1#109	3.709742	$MET1	$W=3.2e-07
+ $X=57.385 $Y=189
Rf265	net1#109	net1#110	4.299523	$MET1	$W=3.2e-07
+ $X=57.385 $Y=177.8055
Rf266	net1#108	net1#109	0.416667	$MET1	$W=3.2e-07
+ $X=57.385 $Y=183.9725
Rf267	VDDA#85	VDDA#86	3.709742	$MET1	$W=3.2e-07
+ $X=58.085 $Y=225.12
Rf268	VDDA#86	VDDA#87	3.789398	$MET1	$W=3.2e-07
+ $X=58.085 $Y=214.9855
Rf269	VDDA#85	VDDA#86	0.416667	$MET1	$W=3.2e-07
+ $X=58.085 $Y=220.0925
Rf270	VDDA#88	VDDA#89	3.709742	$MET1	$W=3.2e-07
+ $X=58.085 $Y=207.06
Rf271	VDDA#89	VDDA#90	3.789398	$MET1	$W=3.2e-07
+ $X=58.085 $Y=196.9255
Rf272	VDDA#88	VDDA#89	0.416667	$MET1	$W=3.2e-07
+ $X=58.085 $Y=202.0325
Rf273	VDDA#91	VDDA#92	3.709742	$MET1	$W=3.2e-07
+ $X=58.085 $Y=189
Rf274	VDDA#92	VDDA#93	3.683523	$MET1	$W=3.2e-07
+ $X=58.085 $Y=179.0855
Rf275	VDDA#91	VDDA#92	0.416667	$MET1	$W=3.2e-07
+ $X=58.085 $Y=183.9725
Rf278	BIAS#21	BIAS#93	1.810406	$MET1	$W=3.2e-07
+ $X=59.675 $Y=151.495
Rf279	BIAS#94	BIAS#95	3.709742	$MET1	$W=3.2e-07
+ $X=62.445 $Y=150.06
Rf280	BIAS#95	BIAS#96	3.332961	$MET1	$W=3.2e-07
+ $X=62.445 $Y=139.4455
Rf281	BIAS#94	BIAS#95	0.416667	$MET1	$W=3.2e-07
+ $X=62.445 $Y=145.0325
Rf282	GNDA#76	GNDA#77	3.709742	$MET1	$W=3.2e-07
+ $X=63.145 $Y=150.06
Rf283	GNDA#77	GNDA#78	2.890211	$MET1	$W=3.2e-07
+ $X=63.145 $Y=140.3655
Rf284	GNDA#76	GNDA#77	0.416667	$MET1	$W=3.2e-07
+ $X=63.145 $Y=145.0325
Rf287	net1#25	net1#114	2.870812	$MET1	$W=3.2e-07
+ $X=60.855 $Y=227.33
Rf290	net1#27	net1#118	2.976687	$MET1	$W=3.2e-07
+ $X=60.855 $Y=209.49
Rf293	net1#29	net1#122	2.976687	$MET1	$W=3.2e-07
+ $X=60.855 $Y=191.43
Rf294	net9#19	net9#20	3.709742	$MET1	$W=3.2e-07
+ $X=63.625 $Y=225.12
Rf295	net9#20	net9#21	4.097398	$MET1	$W=3.2e-07
+ $X=63.625 $Y=214.3455
Rf296	net9#19	net9#20	0.416667	$MET1	$W=3.2e-07
+ $X=63.625 $Y=220.0925
Rf297	net1#123	net1#124	3.709742	$MET1	$W=3.2e-07
+ $X=63.625 $Y=207.06
Rf298	net1#124	net1#125	4.405398	$MET1	$W=3.2e-07
+ $X=63.625 $Y=195.6455
Rf299	net1#123	net1#124	0.416667	$MET1	$W=3.2e-07
+ $X=63.625 $Y=202.0325
Rf300	net9#22	net9#23	3.709742	$MET1	$W=3.2e-07
+ $X=63.625 $Y=189
Rf301	net9#23	net9#24	3.991523	$MET1	$W=3.2e-07
+ $X=63.625 $Y=178.4455
Rf302	net9#22	net9#23	0.416667	$MET1	$W=3.2e-07
+ $X=63.625 $Y=183.9725
Rf303	VDDA#94	VDDA#95	3.709742	$MET1	$W=3.2e-07
+ $X=64.325 $Y=225.12
Rf304	VDDA#95	VDDA#96	3.789398	$MET1	$W=3.2e-07
+ $X=64.325 $Y=214.9855
Rf305	VDDA#94	VDDA#95	0.416667	$MET1	$W=3.2e-07
+ $X=64.325 $Y=220.0925
Rf306	VDDA#97	VDDA#98	3.709742	$MET1	$W=3.2e-07
+ $X=64.325 $Y=207.06
Rf307	VDDA#98	VDDA#99	3.789398	$MET1	$W=3.2e-07
+ $X=64.325 $Y=196.9255
Rf308	VDDA#97	VDDA#98	0.416667	$MET1	$W=3.2e-07
+ $X=64.325 $Y=202.0325
Rf309	VDDA#100	VDDA#101	3.709742	$MET1	$W=3.2e-07
+ $X=64.325 $Y=189
Rf310	VDDA#101	VDDA#102	3.683523	$MET1	$W=3.2e-07
+ $X=64.325 $Y=179.0855
Rf311	VDDA#100	VDDA#101	0.416667	$MET1	$W=3.2e-07
+ $X=64.325 $Y=183.9725
Rf312	DEL	DEL#81	2.378224	$MET1	$W=3.2e-07
+ $X=60.7505 $Y=125.125
Rf313	DEL#81	DEL#82	2.148781	$MET1	$W=3.2e-07
+ $X=51.8205 $Y=125.125
Rf314	DEL#82	DEL#83	1.549084	$MET1	$W=3.2e-07
+ $X=42.0105 $Y=125.125
Rf315	DEL#83	DEL#84	0.593803	$MET1	$W=3.2e-07
+ $X=39.65 $Y=125.125
Rf316	DEL#84	DEL#85	2.165625	$MET1	$W=3.2e-07
+ $X=36.043 $Y=125.125
Rf317	DEL#85	DEL#7	2.566377	$MET1	$W=3.2e-07
+ $X=24.893 $Y=125.125
Rf318	DEL#83	DEL#87	1.195480	$MET1	$W=3.2e-07
+ $X=40.895 $Y=125.47
Rf319	DEL#8	DEL#89	2.378224	$MET1	$W=3.2e-07
+ $X=60.7505 $Y=67.285
Rf320	DEL#89	DEL#90	2.148781	$MET1	$W=3.2e-07
+ $X=51.8205 $Y=67.285
Rf321	DEL#90	DEL#91	1.549084	$MET1	$W=3.2e-07
+ $X=42.0105 $Y=67.285
Rf322	DEL#91	DEL#92	0.593803	$MET1	$W=3.2e-07
+ $X=39.65 $Y=67.285
Rf323	DEL#92	DEL#93	2.165625	$MET1	$W=3.2e-07
+ $X=36.043 $Y=67.285
Rf324	DEL#93	DEL#14	2.566377	$MET1	$W=3.2e-07
+ $X=24.893 $Y=67.285
Rf325	DEL#91	DEL#95	1.195480	$MET1	$W=3.2e-07
+ $X=40.895 $Y=67.63
Rf326	GNDA#79	GNDA#80	2.378224	$MET1	$W=3.2e-07
+ $X=66.165 $Y=122.205
Rf327	GNDA#80	GNDA#81	2.148781	$MET1	$W=3.2e-07
+ $X=66.165 $Y=110.6905
Rf328	GNDA#81	GNDA#82	2.153594	$MET1	$W=3.2e-07
+ $X=66.165 $Y=101.7605
Rf329	GNDA#82	GNDA#83	2.165625	$MET1	$W=3.2e-07
+ $X=66.165 $Y=92.788
Rf330	GNDA#83	GNDA#84	2.171641	$MET1	$W=3.2e-07
+ $X=66.165 $Y=83.763
Rf331	GNDA#84	GNDA#85	2.360984	$MET1	$W=3.2e-07
+ $X=66.165 $Y=74.4155
Rf332	GNDA#79	GNDA#80	0.394737	$MET1	$W=3.2e-07
+ $X=66.165 $Y=115.155
Rf333	GNDA#79	GNDA#81	0.394737	$MET1	$W=3.2e-07
+ $X=66.165 $Y=106.225
Rf334	GNDA#79	GNDA#82	0.394737	$MET1	$W=3.2e-07
+ $X=66.165 $Y=97.275
Rf335	GNDA#79	GNDA#83	0.394737	$MET1	$W=3.2e-07
+ $X=66.165 $Y=88.275
Rf336	GNDA#79	GNDA#84	0.394737	$MET1	$W=3.2e-07
+ $X=66.165 $Y=79.25
Rf337	GNDA#86	GNDA#87	2.378224	$MET1	$W=3.2e-07
+ $X=66.165 $Y=64.365
Rf338	GNDA#87	GNDA#88	2.148781	$MET1	$W=3.2e-07
+ $X=66.165 $Y=52.8505
Rf339	GNDA#88	GNDA#89	2.153594	$MET1	$W=3.2e-07
+ $X=66.165 $Y=43.9205
Rf340	GNDA#89	GNDA#90	2.165625	$MET1	$W=3.2e-07
+ $X=66.165 $Y=34.948
Rf341	GNDA#90	GNDA#91	2.171641	$MET1	$W=3.2e-07
+ $X=66.165 $Y=25.923
Rf342	GNDA#91	GNDA#92	2.360984	$MET1	$W=3.2e-07
+ $X=66.165 $Y=16.5755
Rf343	GNDA#86	GNDA#87	0.394737	$MET1	$W=3.2e-07
+ $X=66.165 $Y=57.315
Rf344	GNDA#86	GNDA#88	0.394737	$MET1	$W=3.2e-07
+ $X=66.165 $Y=48.385
Rf345	GNDA#86	GNDA#89	0.394737	$MET1	$W=3.2e-07
+ $X=66.165 $Y=39.435
Rf346	GNDA#86	GNDA#90	0.394737	$MET1	$W=3.2e-07
+ $X=66.165 $Y=30.435
Rf347	GNDA#86	GNDA#91	0.394737	$MET1	$W=3.2e-07
+ $X=66.165 $Y=21.41
Rf348	GNDA#93	GNDA#94	2.378224	$MET1	$W=3.2e-07
+ $X=68.625 $Y=122.205
Rf349	GNDA#94	GNDA#95	2.148781	$MET1	$W=3.2e-07
+ $X=68.625 $Y=110.6905
Rf350	GNDA#95	GNDA#96	2.153594	$MET1	$W=3.2e-07
+ $X=68.625 $Y=101.7605
Rf351	GNDA#96	GNDA#97	2.165625	$MET1	$W=3.2e-07
+ $X=68.625 $Y=92.788
Rf352	GNDA#97	GNDA#98	2.171641	$MET1	$W=3.2e-07
+ $X=68.625 $Y=83.763
Rf353	GNDA#98	GNDA#99	2.360984	$MET1	$W=3.2e-07
+ $X=68.625 $Y=74.4155
Rf354	GNDA#93	GNDA#94	0.394737	$MET1	$W=3.2e-07
+ $X=68.625 $Y=115.155
Rf355	GNDA#93	GNDA#95	0.394737	$MET1	$W=3.2e-07
+ $X=68.625 $Y=106.225
Rf356	GNDA#93	GNDA#96	0.394737	$MET1	$W=3.2e-07
+ $X=68.625 $Y=97.275
Rf357	GNDA#93	GNDA#97	0.394737	$MET1	$W=3.2e-07
+ $X=68.625 $Y=88.275
Rf358	GNDA#93	GNDA#98	0.394737	$MET1	$W=3.2e-07
+ $X=68.625 $Y=79.25
Rf359	GNDA#100	GNDA#101	2.378224	$MET1	$W=3.2e-07
+ $X=68.625 $Y=64.365
Rf360	GNDA#101	GNDA#102	2.148781	$MET1	$W=3.2e-07
+ $X=68.625 $Y=52.8505
Rf361	GNDA#102	GNDA#103	2.153594	$MET1	$W=3.2e-07
+ $X=68.625 $Y=43.9205
Rf362	GNDA#103	GNDA#104	2.165625	$MET1	$W=3.2e-07
+ $X=68.625 $Y=34.948
Rf363	GNDA#104	GNDA#105	2.171641	$MET1	$W=3.2e-07
+ $X=68.625 $Y=25.923
Rf364	GNDA#105	GNDA#106	2.360984	$MET1	$W=3.2e-07
+ $X=68.625 $Y=16.5755
Rf365	GNDA#100	GNDA#101	0.394737	$MET1	$W=3.2e-07
+ $X=68.625 $Y=57.315
Rf366	GNDA#100	GNDA#102	0.394737	$MET1	$W=3.2e-07
+ $X=68.625 $Y=48.385
Rf367	GNDA#100	GNDA#103	0.394737	$MET1	$W=3.2e-07
+ $X=68.625 $Y=39.435
Rf368	GNDA#100	GNDA#104	0.394737	$MET1	$W=3.2e-07
+ $X=68.625 $Y=30.435
Rf369	GNDA#100	GNDA#105	0.394737	$MET1	$W=3.2e-07
+ $X=68.625 $Y=21.41
Rf370	GNDA#108	GNDA#7	0.879245	$MET1	$W=3.2e-07
+ $X=68.685 $Y=165.8595
Rf371	GNDA#7	GNDA#110	0.661178	$MET1	$W=3.2e-07
+ $X=63.3855 $Y=166.075
Rf372	GNDA#110	GNDA#111	0.157730	$MET1	$W=3.2e-07
+ $X=62.795 $Y=166.075
Rf373	GNDA#111	GNDA#5	0.661178	$MET1	$W=3.2e-07
+ $X=62.205 $Y=166.075
Rf374	GNDA#5	GNDA#114	0.879245	$MET1	$W=3.2e-07
+ $X=56.905 $Y=165.8605
Rf375	GNDA#114	GNDA#115	1.209742	$MET1	$W=3.2e-07
+ $X=56.905 $Y=164.318
Rf376	GNDA#115	GNDA#116	2.885398	$MET1	$W=3.2e-07
+ $X=56.905 $Y=155.3455
Rf377	GNDA#108	GNDA#117	1.209742	$MET1	$W=3.2e-07
+ $X=68.685 $Y=164.318
Rf378	GNDA#117	GNDA#118	2.885398	$MET1	$W=3.2e-07
+ $X=68.685 $Y=155.3455
Rf379	GNDA#110	GNDA#120	0.218089	$MET1	$W=3.2e-07
+ $X=63.145 $Y=165.79
Rf380	GNDA#120	GNDA#121	1.209742	$MET1	$W=3.2e-07
+ $X=63.145 $Y=164.318
Rf381	GNDA#121	GNDA#122	2.885398	$MET1	$W=3.2e-07
+ $X=63.145 $Y=155.3455
Rf382	GNDA#111	GNDA#124	0.218089	$MET1	$W=3.2e-07
+ $X=62.445 $Y=165.79
Rf383	GNDA#124	GNDA#125	1.209742	$MET1	$W=3.2e-07
+ $X=62.445 $Y=164.318
Rf384	GNDA#125	GNDA#126	2.885398	$MET1	$W=3.2e-07
+ $X=62.445 $Y=155.3455
Rf385	GNDA#107	GNDA#108	2.500000	$MET1	$W=3.2e-07
+ $X=68.685 $Y=165.03
Rf386	GNDA#113	GNDA#114	2.500000	$MET1	$W=3.2e-07
+ $X=56.905 $Y=165.03
Rf387	GNDA#113	GNDA#115	0.416667	$MET1	$W=3.2e-07
+ $X=56.905 $Y=160.0025
Rf388	GNDA#107	GNDA#117	0.416667	$MET1	$W=3.2e-07
+ $X=68.685 $Y=160.0025
Rf389	GNDA#119	GNDA#120	2.500000	$MET1	$W=3.2e-07
+ $X=63.145 $Y=165.03
Rf390	GNDA#119	GNDA#121	0.416667	$MET1	$W=3.2e-07
+ $X=63.145 $Y=160.0025
Rf391	GNDA#123	GNDA#124	2.500000	$MET1	$W=3.2e-07
+ $X=62.445 $Y=165.03
Rf392	GNDA#123	GNDA#125	0.416667	$MET1	$W=3.2e-07
+ $X=62.445 $Y=160.0025
Rf393	GNDA#128	GNDA#9	1.629245	$MET1	$W=3.2e-07
+ $X=68.685 $Y=150.8895
Rf394	GNDA#128	GNDA#130	1.209742	$MET1	$W=3.2e-07
+ $X=68.685 $Y=149.348
Rf395	GNDA#130	GNDA#131	2.890211	$MET1	$W=3.2e-07
+ $X=68.685 $Y=140.3655
Rf396	GNDA#127	GNDA#128	2.500000	$MET1	$W=3.2e-07
+ $X=68.685 $Y=150.06
Rf397	GNDA#127	GNDA#130	0.416667	$MET1	$W=3.2e-07
+ $X=68.685 $Y=145.0325
Rf400	net1#31	net1#129	2.870812	$MET1	$W=3.2e-07
+ $X=67.095 $Y=227.33
Rf403	net1#33	net1#133	2.976687	$MET1	$W=3.2e-07
+ $X=67.095 $Y=209.49
Rf406	net1#35	net1#137	2.976687	$MET1	$W=3.2e-07
+ $X=67.095 $Y=191.43
Rf407	net1#138	net1#139	3.709742	$MET1	$W=3.2e-07
+ $X=69.865 $Y=225.12
Rf408	net1#139	net1#140	4.405398	$MET1	$W=3.2e-07
+ $X=69.865 $Y=213.7055
Rf409	net1#138	net1#139	0.416667	$MET1	$W=3.2e-07
+ $X=69.865 $Y=220.0925
Rf410	DEL#96	DEL#97	3.709742	$MET1	$W=3.2e-07
+ $X=69.865 $Y=207.06
Rf411	DEL#97	DEL#98	4.713398	$MET1	$W=3.2e-07
+ $X=69.865 $Y=195.0055
Rf412	DEL#96	DEL#97	0.416667	$MET1	$W=3.2e-07
+ $X=69.865 $Y=202.0325
Rf413	net1#141	net1#142	3.709742	$MET1	$W=3.2e-07
+ $X=69.865 $Y=189
Rf414	net1#142	net1#143	4.299523	$MET1	$W=3.2e-07
+ $X=69.865 $Y=177.8055
Rf415	net1#141	net1#142	0.416667	$MET1	$W=3.2e-07
+ $X=69.865 $Y=183.9725
Rf416	VDDA#103	VDDA#104	3.709742	$MET1	$W=3.2e-07
+ $X=70.565 $Y=225.12
Rf417	VDDA#104	VDDA#105	3.789398	$MET1	$W=3.2e-07
+ $X=70.565 $Y=214.9855
Rf418	VDDA#103	VDDA#104	0.416667	$MET1	$W=3.2e-07
+ $X=70.565 $Y=220.0925
Rf419	VDDA#106	VDDA#107	3.709742	$MET1	$W=3.2e-07
+ $X=70.565 $Y=207.06
Rf420	VDDA#107	VDDA#108	3.789398	$MET1	$W=3.2e-07
+ $X=70.565 $Y=196.9255
Rf421	VDDA#106	VDDA#107	0.416667	$MET1	$W=3.2e-07
+ $X=70.565 $Y=202.0325
Rf422	VDDA#109	VDDA#110	3.709742	$MET1	$W=3.2e-07
+ $X=70.565 $Y=189
Rf423	VDDA#110	VDDA#111	3.683523	$MET1	$W=3.2e-07
+ $X=70.565 $Y=179.0855
Rf424	VDDA#109	VDDA#110	0.416667	$MET1	$W=3.2e-07
+ $X=70.565 $Y=183.9725
Rf427	net1#37	net1#147	2.870812	$MET1	$W=3.2e-07
+ $X=73.335 $Y=227.33
Rf430	net1#39	net1#151	2.976687	$MET1	$W=3.2e-07
+ $X=73.335 $Y=209.49
Rf433	net1#41	net1#155	2.976687	$MET1	$W=3.2e-07
+ $X=73.335 $Y=191.43
Rf434	net9#25	net9#26	3.709742	$MET1	$W=3.2e-07
+ $X=76.105 $Y=225.12
Rf435	net9#26	net9#27	4.097398	$MET1	$W=3.2e-07
+ $X=76.105 $Y=214.3455
Rf436	net9#25	net9#26	0.416667	$MET1	$W=3.2e-07
+ $X=76.105 $Y=220.0925
Rf437	net1#156	net1#157	3.709742	$MET1	$W=3.2e-07
+ $X=76.105 $Y=207.06
Rf438	net1#157	net1#158	4.405398	$MET1	$W=3.2e-07
+ $X=76.105 $Y=195.6455
Rf439	net1#156	net1#157	0.416667	$MET1	$W=3.2e-07
+ $X=76.105 $Y=202.0325
Rf440	net9#28	net9#29	3.709742	$MET1	$W=3.2e-07
+ $X=76.105 $Y=189
Rf441	net9#29	net9#30	3.991523	$MET1	$W=3.2e-07
+ $X=76.105 $Y=178.4455
Rf442	net9#28	net9#29	0.416667	$MET1	$W=3.2e-07
+ $X=76.105 $Y=183.9725
Rf443	VDDA#112	VDDA#113	3.709742	$MET1	$W=3.2e-07
+ $X=76.805 $Y=225.12
Rf444	VDDA#113	VDDA#114	3.789398	$MET1	$W=3.2e-07
+ $X=76.805 $Y=214.9855
Rf445	VDDA#112	VDDA#113	0.416667	$MET1	$W=3.2e-07
+ $X=76.805 $Y=220.0925
Rf446	VDDA#115	VDDA#116	3.709742	$MET1	$W=3.2e-07
+ $X=76.805 $Y=207.06
Rf447	VDDA#116	VDDA#117	3.789398	$MET1	$W=3.2e-07
+ $X=76.805 $Y=196.9255
Rf448	VDDA#115	VDDA#116	0.416667	$MET1	$W=3.2e-07
+ $X=76.805 $Y=202.0325
Rf449	VDDA#118	VDDA#119	3.709742	$MET1	$W=3.2e-07
+ $X=76.805 $Y=189
Rf450	VDDA#119	VDDA#120	3.683523	$MET1	$W=3.2e-07
+ $X=76.805 $Y=179.0855
Rf451	VDDA#118	VDDA#119	0.416667	$MET1	$W=3.2e-07
+ $X=76.805 $Y=183.9725
Rf452	net9#31	net9#32	1.880750	$MET1	$W=3.2e-07
+ $X=81.42 $Y=160.9055
Rf455	VDDA#7	VDDA#124	3.486813	$MET1	$W=3.2e-07
+ $X=79.575 $Y=228.61
Rf458	VDDA#9	VDDA#128	3.592688	$MET1	$W=3.2e-07
+ $X=79.575 $Y=210.77
Rf461	net1#43	net1#162	2.976687	$MET1	$W=3.2e-07
+ $X=79.575 $Y=191.43
Rf462	VDDA#129	VDDA#130	3.709742	$MET1	$W=3.2e-07
+ $X=82.345 $Y=225.12
Rf463	VDDA#130	VDDA#131	3.789398	$MET1	$W=3.2e-07
+ $X=82.345 $Y=214.9855
Rf464	VDDA#129	VDDA#130	0.416667	$MET1	$W=3.2e-07
+ $X=82.345 $Y=220.0925
Rf465	VDDA#132	VDDA#133	3.709742	$MET1	$W=3.2e-07
+ $X=82.345 $Y=207.06
Rf466	VDDA#133	VDDA#134	3.789398	$MET1	$W=3.2e-07
+ $X=82.345 $Y=196.9255
Rf467	VDDA#132	VDDA#133	0.416667	$MET1	$W=3.2e-07
+ $X=82.345 $Y=202.0325
Rf468	net1#163	net1#164	3.709742	$MET1	$W=3.2e-07
+ $X=82.345 $Y=189
Rf469	net1#164	net1#165	4.299523	$MET1	$W=3.2e-07
+ $X=82.345 $Y=177.8055
Rf470	net1#163	net1#164	0.416667	$MET1	$W=3.2e-07
+ $X=82.345 $Y=183.9725
Rf471	net10#5	net10#6	2.309062	$MET1	$W=3.2e-07
+ $X=82.46 $Y=160.0155
Rf474	BG_REF#4	BG_REF#1	7.927350	$MET1	$W=3.2e-07
+ $X=81.94 $Y=166.77
Rf475	VDDA#135	VDDA#136	3.709742	$MET1	$W=3.2e-07
+ $X=83.045 $Y=225.12
Rf476	VDDA#136	VDDA#137	3.789398	$MET1	$W=3.2e-07
+ $X=83.045 $Y=214.9855
Rf477	VDDA#135	VDDA#136	0.416667	$MET1	$W=3.2e-07
+ $X=83.045 $Y=220.0925
Rf478	VDDA#138	VDDA#139	3.709742	$MET1	$W=3.2e-07
+ $X=83.045 $Y=207.06
Rf479	VDDA#139	VDDA#140	3.789398	$MET1	$W=3.2e-07
+ $X=83.045 $Y=196.9255
Rf480	VDDA#138	VDDA#139	0.416667	$MET1	$W=3.2e-07
+ $X=83.045 $Y=202.0325
Rf481	VDDA#141	VDDA#142	3.709742	$MET1	$W=3.2e-07
+ $X=83.045 $Y=189
Rf482	VDDA#142	VDDA#143	3.683523	$MET1	$W=3.2e-07
+ $X=83.045 $Y=179.0855
Rf483	VDDA#141	VDDA#142	0.416667	$MET1	$W=3.2e-07
+ $X=83.045 $Y=183.9725
Rf484	net9#33	net9#34	1.880750	$MET1	$W=3.2e-07
+ $X=83.16 $Y=160.9055
Rf485	A#5	A#6	2.737375	$MET1	$W=3.2e-07
+ $X=84.2 $Y=159.1255
Rf488	C#8	C	7.739663	$MET1	$W=3.2e-07
+ $X=83.68 $Y=166.38
Rf490	net10#2	net10#9	1.341333	$MET1	$W=2.1e-07
+ $X=82.14 $Y=146.44
Rf492	A#7	A#8	2.090281	$MET1	$W=3.2e-07
+ $X=84.91 $Y=139.5505
Rf495	VDDA#11	VDDA#147	3.486813	$MET1	$W=3.2e-07
+ $X=85.815 $Y=228.61
Rf498	VDDA#13	VDDA#151	3.592688	$MET1	$W=3.2e-07
+ $X=85.815 $Y=210.77
Rf501	VDDA#15	VDDA#155	3.592688	$MET1	$W=3.2e-07
+ $X=85.815 $Y=192.71
Rf502	VDDA#156	VDDA#157	3.709742	$MET1	$W=3.2e-07
+ $X=88.585 $Y=225.12
Rf503	VDDA#157	VDDA#158	3.789398	$MET1	$W=3.2e-07
+ $X=88.585 $Y=214.9855
Rf504	VDDA#156	VDDA#157	0.416667	$MET1	$W=3.2e-07
+ $X=88.585 $Y=220.0925
Rf505	VDDA#159	VDDA#160	3.709742	$MET1	$W=3.2e-07
+ $X=88.585 $Y=207.06
Rf506	VDDA#160	VDDA#161	3.789398	$MET1	$W=3.2e-07
+ $X=88.585 $Y=196.9255
Rf507	VDDA#159	VDDA#160	0.416667	$MET1	$W=3.2e-07
+ $X=88.585 $Y=202.0325
Rf508	VDDA#162	VDDA#163	3.709742	$MET1	$W=3.2e-07
+ $X=88.585 $Y=189
Rf509	VDDA#163	VDDA#164	3.683523	$MET1	$W=3.2e-07
+ $X=88.585 $Y=179.0855
Rf510	VDDA#162	VDDA#163	0.416667	$MET1	$W=3.2e-07
+ $X=88.585 $Y=183.9725
Rf512	net10#4	net10#13	0.216333	$MET1	$W=2.1e-07
+ $X=88.38 $Y=146.44
Rf514	net10#15	net10#16	2.518594	$MET1	$W=3.2e-07
+ $X=91.15 $Y=138.6605
Rf515	DEL#99	DEL#100	0.750000	$MET1	$W=4.8e-06
+ $X=94.095 $Y=158.935
Rf516	A#9	A#10	0.287547	$MET1	$W=3.2e-07
+ $X=95.0625 $Y=161.795
Rf517	A#10	A#3	7.697312	$MET1	$W=3.2e-07
+ $X=94.0955 $Y=161.795
Rf518	DEL#17	DEL#102	3.788237	$MET1	$W=6.9e-07
+ $X=99.025 $Y=157.805
Rf519	XI0/net39	XI0/net39#2	15.770767	$MET1	$W=2.1e-07
+ $X=100.2375 $Y=156.855
Rf520	XI0/net31#7	XI0/net31#18	4.786096	$MET1	$W=2.1e-07
+ $X=99.545 $Y=157.315
Rf521	XI0/net31#18	XI0/net31#19	7.580201	$MET1	$W=3.2e-07
+ $X=98.255 $Y=157.175
Rf522	XI0/net31#18	XI0/net31#20	7.899578	$MET1	$W=2.1e-07
+ $X=98.2 $Y=157.85
Rf523	XI0/net14	XI0/net14#2	15.633434	$MET1	$W=2.65e-07
+ $X=100.2355 $Y=158.4375
Rf524	VDDA#165	VDDA#166	0.227970	$MET1	$W=2.98e-06
+ $X=100.66 $Y=233.8505
Rf525	VDDA#166	VDDA#168	0.061676	$MET1	$W=3.155e-06
+ $X=100.5725 $Y=231.2625
Rf526	VDDA#168	VDDA#169	0.172548	$MET1	$W=3.155e-06
+ $X=100.5725 $Y=226.4655
Rf527	VDDA#169	VDDA#170	0.209523	$MET1	$W=3.155e-06
+ $X=100.5725 $Y=218.638
Rf528	VDDA#170	VDDA#171	0.215319	$MET1	$W=3.155e-06
+ $X=100.5725 $Y=209.9345
Rf529	VDDA#171	VDDA#172	0.220323	$MET1	$W=3.155e-06
+ $X=100.5725 $Y=201.0095
Rf530	VDDA#172	VDDA#173	0.219651	$MET1	$W=3.155e-06
+ $X=100.5725 $Y=191.9955
Rf531	VDDA#173	VDDA#174	0.219651	$MET1	$W=3.155e-06
+ $X=100.5725 $Y=182.9955
Rf532	VDDA#174	VDDA#175	0.253312	$MET1	$W=3.155e-06
+ $X=100.5725 $Y=176.2005
Rf533	VDDA#175	VDDA#176	0.213544	$MET1	$W=3.165e-06
+ $X=88.2205 $Y=172.8225
Rf534	VDDA#176	VDDA#177	0.087865	$MET1	$W=3.165e-06
+ $X=85.845 $Y=174.245
Rf535	VDDA#177	VDDA#178	1.182706	$MET1	$W=3.2e-07
+ $X=79.095 $Y=174.245
Rf536	VDDA#178	VDDA#179	2.165625	$MET1	$W=3.2e-07
+ $X=74.4705 $Y=174.245
Rf537	VDDA#179	VDDA#180	2.165625	$MET1	$W=3.2e-07
+ $X=63.3455 $Y=174.245
Rf538	VDDA#180	VDDA#181	2.165625	$MET1	$W=3.2e-07
+ $X=54.3455 $Y=174.245
Rf539	VDDA#181	VDDA#182	2.165625	$MET1	$W=3.2e-07
+ $X=45.3455 $Y=174.245
Rf540	VDDA#182	VDDA#183	2.165625	$MET1	$W=3.2e-07
+ $X=36.3455 $Y=174.245
Rf541	VDDA#183	VDDA#184	2.165625	$MET1	$W=3.2e-07
+ $X=27.3455 $Y=174.245
Rf542	VDDA#184	VDDA#185	2.076355	$MET1	$W=3.2e-07
+ $X=18.095 $Y=176.1845
Rf543	VDDA#177	VDDA#187	0.066390	$MET1	$W=2.98e-06
+ $X=82.675 $Y=170.03
Rf544	VDDA#187	VDDA#188	1.371005	$MET1	$W=3.2e-07
+ $X=80.4075 $Y=168.66
Rf545	VDDA#188	VDDA#189	1.759570	$MET1	$W=3.2e-07
+ $X=79.47 $Y=162.392
Rf546	VDDA#189	VDDA#190	1.768956	$MET1	$W=3.2e-07
+ $X=79.47 $Y=156.563
Rf547	VDDA#190	VDDA#191	1.793620	$MET1	$W=3.2e-07
+ $X=86.15 $Y=156.608
Rf548	VDDA#191	VDDA#192	1.757164	$MET1	$W=3.2e-07
+ $X=86.15 $Y=162.483
Rf549	VDDA#192	VDDA#193	0.814135	$MET1	$W=3.2e-07
+ $X=86.15 $Y=167.397
Rf550	VDDA#185	VDDA#194	2.065766	$MET1	$W=3.2e-07
+ $X=18.095 $Y=180.557
Rf551	VDDA#194	VDDA#195	2.065766	$MET1	$W=3.2e-07
+ $X=18.095 $Y=191.162
Rf552	VDDA#195	VDDA#196	2.119305	$MET1	$W=3.2e-07
+ $X=18.095 $Y=199.747
Rf553	VDDA#196	VDDA#197	2.168633	$MET1	$W=3.2e-07
+ $X=18.095 $Y=208.7745
Rf554	VDDA#197	VDDA#198	2.165625	$MET1	$W=3.2e-07
+ $X=18.095 $Y=217.7745
Rf555	VDDA#198	VDDA#199	1.804688	$MET1	$W=3.2e-07
+ $X=18.095 $Y=228.1495
Rf556	VDDA#199	VDDA#200	1.716620	$MET1	$W=3.2e-07
+ $X=18.095 $Y=231.232
Rf557	VDDA#200	VDDA#201	2.065766	$MET1	$W=3.2e-07
+ $X=26.932 $Y=232.525
Rf558	VDDA#201	VDDA#202	2.065766	$MET1	$W=3.2e-07
+ $X=35.517 $Y=232.525
Rf559	VDDA#202	VDDA#203	2.118703	$MET1	$W=3.2e-07
+ $X=44.102 $Y=232.525
Rf560	VDDA#203	VDDA#204	2.171641	$MET1	$W=3.2e-07
+ $X=53.1245 $Y=232.525
Rf561	VDDA#204	VDDA#205	2.119906	$MET1	$W=3.2e-07
+ $X=62.157 $Y=232.525
Rf562	VDDA#205	VDDA#206	2.065766	$MET1	$W=3.2e-07
+ $X=70.742 $Y=232.525
Rf563	VDDA#206	VDDA#207	2.125320	$MET1	$W=3.2e-07
+ $X=79.327 $Y=232.525
Rf564	VDDA#207	VDDA#208	2.174649	$MET1	$W=3.2e-07
+ $X=88.4045 $Y=232.525
Rf565	VDDA#208	VDDA#209	1.263281	$MET1	$W=3.2e-07
+ $X=97.4045 $Y=232.525
Rf566	VDDA#209	VDDA#210	0.179336	$MET1	$W=3.2e-07
+ $X=98.155 $Y=232.525
Rf567	VDDA#193	VDDA#187	0.512956	$MET1	$W=3.2e-07
+ $X=84.175 $Y=168.66
Rf568	VDDA#210	VDDA#166	0.080060	$MET1	$W=3.2e-07
+ $X=98.985 $Y=232.525
Rf569	VDDA#167	VDDA#168	0.681818	$MET1	$W=3.155e-06
+ $X=99.155 $Y=230
Rf570	VDDA#167	VDDA#169	0.441176	$MET1	$W=3.155e-06
+ $X=99.155 $Y=222.93
Rf571	VDDA#167	VDDA#170	0.441176	$MET1	$W=3.155e-06
+ $X=99.155 $Y=214.345
Rf572	VDDA#167	VDDA#171	0.416667	$MET1	$W=3.155e-06
+ $X=99.155 $Y=205.5225
Rf573	VDDA#167	VDDA#172	0.416667	$MET1	$W=3.155e-06
+ $X=99.155 $Y=196.495
Rf574	VDDA#167	VDDA#173	0.416667	$MET1	$W=3.155e-06
+ $X=99.155 $Y=187.495
Rf575	VDDA#167	VDDA#174	0.416667	$MET1	$W=3.155e-06
+ $X=99.155 $Y=178.495
Rf576	VDDA#167	VDDA#175	0.441176	$MET1	$W=3.155e-06
+ $X=94.6225 $Y=174.245
Rf577	VDDA#167	VDDA#176	0.416667	$MET1	$W=3.165e-06
+ $X=85.845 $Y=174.245
Rf578	VDDA#167	VDDA#178	0.416667	$MET1	$W=3.2e-07
+ $X=76.845 $Y=174.245
Rf579	VDDA#167	VDDA#179	0.416667	$MET1	$W=3.2e-07
+ $X=67.845 $Y=174.245
Rf580	VDDA#167	VDDA#180	0.416667	$MET1	$W=3.2e-07
+ $X=58.845 $Y=174.245
Rf581	VDDA#167	VDDA#181	0.416667	$MET1	$W=3.2e-07
+ $X=49.845 $Y=174.245
Rf582	VDDA#167	VDDA#182	0.416667	$MET1	$W=3.2e-07
+ $X=40.845 $Y=174.245
Rf583	VDDA#167	VDDA#183	0.416667	$MET1	$W=3.2e-07
+ $X=31.845 $Y=174.245
Rf584	VDDA#167	VDDA#184	0.416667	$MET1	$W=3.2e-07
+ $X=22.845 $Y=174.245
Rf585	VDDA#167	VDDA#185	0.441176	$MET1	$W=3.2e-07
+ $X=18.095 $Y=178.285
Rf586	VDDA#186	VDDA#187	0.625000	$MET1	$W=2.98e-06
+ $X=82.8125 $Y=168.66
Rf587	VDDA#186	VDDA#188	0.681818	$MET1	$W=3.2e-07
+ $X=79.47 $Y=166.0475
Rf588	VDDA#186	VDDA#189	0.441176	$MET1	$W=3.2e-07
+ $X=79.47 $Y=158.735
Rf589	VDDA#186	VDDA#190	0.625000	$MET1	$W=3.2e-07
+ $X=82.8075 $Y=154.56
Rf590	VDDA#186	VDDA#191	0.416667	$MET1	$W=3.2e-07
+ $X=86.15 $Y=158.8325
Rf591	VDDA#186	VDDA#192	0.681818	$MET1	$W=3.2e-07
+ $X=86.15 $Y=166.135
Rf592	VDDA#167	VDDA#194	0.441176	$MET1	$W=3.2e-07
+ $X=18.095 $Y=186.87
Rf593	VDDA#167	VDDA#195	0.441176	$MET1	$W=3.2e-07
+ $X=18.095 $Y=195.455
Rf594	VDDA#167	VDDA#196	0.416667	$MET1	$W=3.2e-07
+ $X=18.095 $Y=204.2625
Rf595	VDDA#167	VDDA#197	0.416667	$MET1	$W=3.2e-07
+ $X=18.095 $Y=213.275
Rf596	VDDA#167	VDDA#198	0.416667	$MET1	$W=3.2e-07
+ $X=18.095 $Y=222.275
Rf597	VDDA#167	VDDA#199	0.625000	$MET1	$W=3.2e-07
+ $X=18.095 $Y=229.775
Rf598	VDDA#167	VDDA#200	0.441176	$MET1	$W=3.2e-07
+ $X=22.64 $Y=232.525
Rf599	VDDA#167	VDDA#201	0.441176	$MET1	$W=3.2e-07
+ $X=31.225 $Y=232.525
Rf600	VDDA#167	VDDA#202	0.441176	$MET1	$W=3.2e-07
+ $X=39.81 $Y=232.525
Rf601	VDDA#167	VDDA#203	0.416667	$MET1	$W=3.2e-07
+ $X=48.615 $Y=232.525
Rf602	VDDA#167	VDDA#204	0.416667	$MET1	$W=3.2e-07
+ $X=57.64 $Y=232.525
Rf603	VDDA#167	VDDA#205	0.441176	$MET1	$W=3.2e-07
+ $X=66.45 $Y=232.525
Rf604	VDDA#167	VDDA#206	0.441176	$MET1	$W=3.2e-07
+ $X=75.035 $Y=232.525
Rf605	VDDA#167	VDDA#207	0.416667	$MET1	$W=3.2e-07
+ $X=83.8675 $Y=232.525
Rf606	VDDA#167	VDDA#208	0.416667	$MET1	$W=3.2e-07
+ $X=92.905 $Y=232.525
Rf607	VDDA#167	VDDA#209	2.500000	$MET1	$W=3.2e-07
+ $X=98.155 $Y=232.525
Rf608	VDDA#211	VDDA#212	7.636566	$MET1	$W=2.65e-07
+ $X=103.715 $Y=158.465
Rf609	VDDA#212	VDDA#213	8.021656	$MET1	$W=2.1e-07
+ $X=102.705 $Y=157.78
Rf610	VDDA#211	VDDA#212	7.500000	$MET1	$W=2.65e-07
+ $X=103.245 $Y=158.465
Rf611	POR_OUT_L#1	POR_OUT_L#2	7.560175	$MET1	$W=9.1e-07
+ $X=106.425 $Y=158.465
Rf612	POR_OUT_L#2	POR_OUT_L#3	0.347393	$MET1	$W=2.6e-07
+ $X=105.305 $Y=157.805
Rf613	POR_OUT_L#3	POR_OUT_L#4	7.655682	$MET1	$W=3e-07
+ $X=104.555 $Y=157.4875
Rf614	POR_OUT_L#2	POR_OUT_L#5	7.545219	$MET1	$W=9.6e-07
+ $X=106.285 $Y=157.725
Rf615	POR_OUT_L#3	POR_OUT_L#6	7.626165	$MET1	$W=4e-07
+ $X=104.605 $Y=158.1475
Rf616	VDDA#211	VDDA#214	7.674565	$MET1	$W=2.7e-07
+ $X=107.395 $Y=159.465
Rf617	VDDA#214	VDDA#215	0.186103	$MET1	$W=7.8e-07
+ $X=106.48 $Y=160.325
Rf618	VDDA#215	VDDA#216	0.202224	$MET1	$W=7.8e-07
+ $X=105.11 $Y=160.325
Rf619	VDDA#216	VDDA#217	0.026400	$MET1	$W=1.706e-06
+ $X=102.735 $Y=160.6325
Rf620	VDDA#217	VDDA#218	0.152178	$MET1	$W=7.8e-07
+ $X=100.735 $Y=160.325
Rf622	VDDA#215	VDDA#220	7.648501	$MET1	$W=3e-07
+ $X=105.525 $Y=159.77
Rf623	VDDA#217	VDDA#221	0.065932	$MET1	$W=7.8e-07
+ $X=102.385 $Y=160.325
Rf624	VDDA#221	VDDA#211	7.500000	$MET1	$W=7.8e-07
+ $X=103.495 $Y=159.44
Rf625	VDDA#218	VDDA#222	0.057039	$MET1	$W=7.6e-07
+ $X=100.325 $Y=160.325
Rf626	VDDA#222	VDDA#211	7.500000	$MET1	$W=7.6e-07
+ $X=100.31 $Y=159.44
Rf627	VDDA#211	VDDA#214	3.750000	$MET1	$W=2.7e-07
+ $X=107.425 $Y=160.325
Rf628	VDDA#211	VDDA#217	0.468750	$MET1	$W=1.205e-06
+ $X=102.385 $Y=160.325
Rf629	VDDA#211	VDDA#221	7.500000	$MET1	$W=7.8e-07
+ $X=103.745 $Y=159.44
Rf630	VDDA#211	VDDA#222	7.500000	$MET1	$W=7.6e-07
+ $X=100.545 $Y=159.44
Rf631	DEL#21	DEL#104	2.378224	$MET1	$W=3.2e-07
+ $X=113.7505 $Y=125.125
Rf632	DEL#104	DEL#105	2.148781	$MET1	$W=3.2e-07
+ $X=104.8205 $Y=125.125
Rf633	DEL#105	DEL#106	1.549084	$MET1	$W=3.2e-07
+ $X=95.0105 $Y=125.125
Rf634	DEL#106	DEL#107	0.593803	$MET1	$W=3.2e-07
+ $X=92.65 $Y=125.125
Rf635	DEL#107	DEL#108	2.165625	$MET1	$W=3.2e-07
+ $X=89.043 $Y=125.125
Rf636	DEL#108	DEL#27	2.566377	$MET1	$W=3.2e-07
+ $X=77.893 $Y=125.125
Rf637	DEL#106	DEL#110	1.195480	$MET1	$W=3.2e-07
+ $X=93.895 $Y=125.47
Rf638	DEL#28	DEL#112	2.378224	$MET1	$W=3.2e-07
+ $X=113.7505 $Y=67.285
Rf639	DEL#112	DEL#113	2.148781	$MET1	$W=3.2e-07
+ $X=104.8205 $Y=67.285
Rf640	DEL#113	DEL#114	1.549084	$MET1	$W=3.2e-07
+ $X=95.0105 $Y=67.285
Rf641	DEL#114	DEL#115	0.593803	$MET1	$W=3.2e-07
+ $X=92.65 $Y=67.285
Rf642	DEL#115	DEL#116	2.165625	$MET1	$W=3.2e-07
+ $X=89.043 $Y=67.285
Rf643	DEL#116	DEL#34	2.566377	$MET1	$W=3.2e-07
+ $X=77.893 $Y=67.285
Rf644	DEL#114	DEL#118	1.195480	$MET1	$W=3.2e-07
+ $X=93.895 $Y=67.63
Rf645	GNDA#132	GNDA#133	2.378224	$MET1	$W=3.2e-07
+ $X=119.165 $Y=122.205
Rf646	GNDA#133	GNDA#134	2.148781	$MET1	$W=3.2e-07
+ $X=119.165 $Y=110.6905
Rf647	GNDA#134	GNDA#135	2.153594	$MET1	$W=3.2e-07
+ $X=119.165 $Y=101.7605
Rf648	GNDA#135	GNDA#136	2.165625	$MET1	$W=3.2e-07
+ $X=119.165 $Y=92.788
Rf649	GNDA#136	GNDA#137	2.171641	$MET1	$W=3.2e-07
+ $X=119.165 $Y=83.763
Rf650	GNDA#137	GNDA#138	2.360984	$MET1	$W=3.2e-07
+ $X=119.165 $Y=74.4155
Rf651	GNDA#132	GNDA#133	0.394737	$MET1	$W=3.2e-07
+ $X=119.165 $Y=115.155
Rf652	GNDA#132	GNDA#134	0.394737	$MET1	$W=3.2e-07
+ $X=119.165 $Y=106.225
Rf653	GNDA#132	GNDA#135	0.394737	$MET1	$W=3.2e-07
+ $X=119.165 $Y=97.275
Rf654	GNDA#132	GNDA#136	0.394737	$MET1	$W=3.2e-07
+ $X=119.165 $Y=88.275
Rf655	GNDA#132	GNDA#137	0.394737	$MET1	$W=3.2e-07
+ $X=119.165 $Y=79.25
Rf656	GNDA#139	GNDA#140	2.378224	$MET1	$W=3.2e-07
+ $X=119.165 $Y=64.365
Rf657	GNDA#140	GNDA#141	2.148781	$MET1	$W=3.2e-07
+ $X=119.165 $Y=52.8505
Rf658	GNDA#141	GNDA#142	2.153594	$MET1	$W=3.2e-07
+ $X=119.165 $Y=43.9205
Rf659	GNDA#142	GNDA#143	2.165625	$MET1	$W=3.2e-07
+ $X=119.165 $Y=34.948
Rf660	GNDA#143	GNDA#144	2.171641	$MET1	$W=3.2e-07
+ $X=119.165 $Y=25.923
Rf661	GNDA#144	GNDA#145	2.360984	$MET1	$W=3.2e-07
+ $X=119.165 $Y=16.5755
Rf662	GNDA#139	GNDA#140	0.394737	$MET1	$W=3.2e-07
+ $X=119.165 $Y=57.315
Rf663	GNDA#139	GNDA#141	0.394737	$MET1	$W=3.2e-07
+ $X=119.165 $Y=48.385
Rf664	GNDA#139	GNDA#142	0.394737	$MET1	$W=3.2e-07
+ $X=119.165 $Y=39.435
Rf665	GNDA#139	GNDA#143	0.394737	$MET1	$W=3.2e-07
+ $X=119.165 $Y=30.435
Rf666	GNDA#139	GNDA#144	0.394737	$MET1	$W=3.2e-07
+ $X=119.165 $Y=21.41
Rf667	GNDA#146	GNDA#147	2.378224	$MET1	$W=3.2e-07
+ $X=121.625 $Y=122.205
Rf668	GNDA#147	GNDA#148	2.148781	$MET1	$W=3.2e-07
+ $X=121.625 $Y=110.6905
Rf669	GNDA#148	GNDA#149	2.153594	$MET1	$W=3.2e-07
+ $X=121.625 $Y=101.7605
Rf670	GNDA#149	GNDA#150	2.165625	$MET1	$W=3.2e-07
+ $X=121.625 $Y=92.788
Rf671	GNDA#150	GNDA#151	2.171641	$MET1	$W=3.2e-07
+ $X=121.625 $Y=83.763
Rf672	GNDA#151	GNDA#152	2.360984	$MET1	$W=3.2e-07
+ $X=121.625 $Y=74.4155
Rf673	GNDA#146	GNDA#147	0.394737	$MET1	$W=3.2e-07
+ $X=121.625 $Y=115.155
Rf674	GNDA#146	GNDA#148	0.394737	$MET1	$W=3.2e-07
+ $X=121.625 $Y=106.225
Rf675	GNDA#146	GNDA#149	0.394737	$MET1	$W=3.2e-07
+ $X=121.625 $Y=97.275
Rf676	GNDA#146	GNDA#150	0.394737	$MET1	$W=3.2e-07
+ $X=121.625 $Y=88.275
Rf677	GNDA#146	GNDA#151	0.394737	$MET1	$W=3.2e-07
+ $X=121.625 $Y=79.25
Rf678	GNDA#153	GNDA#154	2.378224	$MET1	$W=3.2e-07
+ $X=121.625 $Y=64.365
Rf679	GNDA#154	GNDA#155	2.148781	$MET1	$W=3.2e-07
+ $X=121.625 $Y=52.8505
Rf680	GNDA#155	GNDA#156	2.153594	$MET1	$W=3.2e-07
+ $X=121.625 $Y=43.9205
Rf681	GNDA#156	GNDA#157	2.165625	$MET1	$W=3.2e-07
+ $X=121.625 $Y=34.948
Rf682	GNDA#157	GNDA#158	2.171641	$MET1	$W=3.2e-07
+ $X=121.625 $Y=25.923
Rf683	GNDA#158	GNDA#159	2.360984	$MET1	$W=3.2e-07
+ $X=121.625 $Y=16.5755
Rf684	GNDA#153	GNDA#154	0.394737	$MET1	$W=3.2e-07
+ $X=121.625 $Y=57.315
Rf685	GNDA#153	GNDA#155	0.394737	$MET1	$W=3.2e-07
+ $X=121.625 $Y=48.385
Rf686	GNDA#153	GNDA#156	0.394737	$MET1	$W=3.2e-07
+ $X=121.625 $Y=39.435
Rf687	GNDA#153	GNDA#157	0.394737	$MET1	$W=3.2e-07
+ $X=121.625 $Y=30.435
Rf688	GNDA#153	GNDA#158	0.394737	$MET1	$W=3.2e-07
+ $X=121.625 $Y=21.41
Rf689	C#11	C#4	0.964915	$MET1	$W=3.8e-06
+ $X=124.16 $Y=136.175
Rf690	DEL#35	DEL#120	2.378224	$MET1	$W=3.2e-07
+ $X=166.7505 $Y=125.125
Rf691	DEL#120	DEL#121	2.148781	$MET1	$W=3.2e-07
+ $X=157.8205 $Y=125.125
Rf692	DEL#121	DEL#122	1.549084	$MET1	$W=3.2e-07
+ $X=148.0105 $Y=125.125
Rf693	DEL#122	DEL#123	0.593803	$MET1	$W=3.2e-07
+ $X=145.65 $Y=125.125
Rf694	DEL#123	DEL#124	2.165625	$MET1	$W=3.2e-07
+ $X=142.043 $Y=125.125
Rf695	DEL#124	DEL#41	2.566377	$MET1	$W=3.2e-07
+ $X=130.893 $Y=125.125
Rf696	DEL#122	DEL#126	1.195480	$MET1	$W=3.2e-07
+ $X=146.895 $Y=125.47
Rf697	DEL#42	DEL#128	2.378224	$MET1	$W=3.2e-07
+ $X=166.7505 $Y=67.285
Rf698	DEL#128	DEL#129	2.148781	$MET1	$W=3.2e-07
+ $X=157.8205 $Y=67.285
Rf699	DEL#129	DEL#130	1.549084	$MET1	$W=3.2e-07
+ $X=148.0105 $Y=67.285
Rf700	DEL#130	DEL#131	0.593803	$MET1	$W=3.2e-07
+ $X=145.65 $Y=67.285
Rf701	DEL#131	DEL#132	2.165625	$MET1	$W=3.2e-07
+ $X=142.043 $Y=67.285
Rf702	DEL#132	DEL#48	2.566377	$MET1	$W=3.2e-07
+ $X=130.893 $Y=67.285
Rf703	DEL#130	DEL#134	1.195480	$MET1	$W=3.2e-07
+ $X=146.895 $Y=67.63
Rf704	GNDA#160	GNDA#161	2.378224	$MET1	$W=3.2e-07
+ $X=172.165 $Y=122.205
Rf705	GNDA#161	GNDA#162	2.148781	$MET1	$W=3.2e-07
+ $X=172.165 $Y=110.6905
Rf706	GNDA#162	GNDA#163	2.153594	$MET1	$W=3.2e-07
+ $X=172.165 $Y=101.7605
Rf707	GNDA#163	GNDA#164	2.165625	$MET1	$W=3.2e-07
+ $X=172.165 $Y=92.788
Rf708	GNDA#164	GNDA#165	2.171641	$MET1	$W=3.2e-07
+ $X=172.165 $Y=83.763
Rf709	GNDA#165	GNDA#166	2.360984	$MET1	$W=3.2e-07
+ $X=172.165 $Y=74.4155
Rf710	GNDA#160	GNDA#161	0.394737	$MET1	$W=3.2e-07
+ $X=172.165 $Y=115.155
Rf711	GNDA#160	GNDA#162	0.394737	$MET1	$W=3.2e-07
+ $X=172.165 $Y=106.225
Rf712	GNDA#160	GNDA#163	0.394737	$MET1	$W=3.2e-07
+ $X=172.165 $Y=97.275
Rf713	GNDA#160	GNDA#164	0.394737	$MET1	$W=3.2e-07
+ $X=172.165 $Y=88.275
Rf714	GNDA#160	GNDA#165	0.394737	$MET1	$W=3.2e-07
+ $X=172.165 $Y=79.25
Rf715	GNDA#167	GNDA#168	2.378224	$MET1	$W=3.2e-07
+ $X=172.165 $Y=64.365
Rf716	GNDA#168	GNDA#169	2.148781	$MET1	$W=3.2e-07
+ $X=172.165 $Y=52.8505
Rf717	GNDA#169	GNDA#170	2.153594	$MET1	$W=3.2e-07
+ $X=172.165 $Y=43.9205
Rf718	GNDA#170	GNDA#171	2.165625	$MET1	$W=3.2e-07
+ $X=172.165 $Y=34.948
Rf719	GNDA#171	GNDA#172	2.171641	$MET1	$W=3.2e-07
+ $X=172.165 $Y=25.923
Rf720	GNDA#172	GNDA#173	2.360984	$MET1	$W=3.2e-07
+ $X=172.165 $Y=16.5755
Rf721	GNDA#167	GNDA#168	0.394737	$MET1	$W=3.2e-07
+ $X=172.165 $Y=57.315
Rf722	GNDA#167	GNDA#169	0.394737	$MET1	$W=3.2e-07
+ $X=172.165 $Y=48.385
Rf723	GNDA#167	GNDA#170	0.394737	$MET1	$W=3.2e-07
+ $X=172.165 $Y=39.435
Rf724	GNDA#167	GNDA#171	0.394737	$MET1	$W=3.2e-07
+ $X=172.165 $Y=30.435
Rf725	GNDA#167	GNDA#172	0.394737	$MET1	$W=3.2e-07
+ $X=172.165 $Y=21.41
Rf726	GNDA#174	GNDA#175	2.378224	$MET1	$W=3.2e-07
+ $X=174.625 $Y=122.205
Rf727	GNDA#175	GNDA#176	2.148781	$MET1	$W=3.2e-07
+ $X=174.625 $Y=110.6905
Rf728	GNDA#176	GNDA#177	2.153594	$MET1	$W=3.2e-07
+ $X=174.625 $Y=101.7605
Rf729	GNDA#177	GNDA#178	2.165625	$MET1	$W=3.2e-07
+ $X=174.625 $Y=92.788
Rf730	GNDA#178	GNDA#179	2.171641	$MET1	$W=3.2e-07
+ $X=174.625 $Y=83.763
Rf731	GNDA#179	GNDA#180	2.360984	$MET1	$W=3.2e-07
+ $X=174.625 $Y=74.4155
Rf732	GNDA#174	GNDA#175	0.394737	$MET1	$W=3.2e-07
+ $X=174.625 $Y=115.155
Rf733	GNDA#174	GNDA#176	0.394737	$MET1	$W=3.2e-07
+ $X=174.625 $Y=106.225
Rf734	GNDA#174	GNDA#177	0.394737	$MET1	$W=3.2e-07
+ $X=174.625 $Y=97.275
Rf735	GNDA#174	GNDA#178	0.394737	$MET1	$W=3.2e-07
+ $X=174.625 $Y=88.275
Rf736	GNDA#174	GNDA#179	0.394737	$MET1	$W=3.2e-07
+ $X=174.625 $Y=79.25
Rf737	GNDA#181	GNDA#182	2.378224	$MET1	$W=3.2e-07
+ $X=174.625 $Y=64.365
Rf738	GNDA#182	GNDA#183	2.148781	$MET1	$W=3.2e-07
+ $X=174.625 $Y=52.8505
Rf739	GNDA#183	GNDA#184	2.153594	$MET1	$W=3.2e-07
+ $X=174.625 $Y=43.9205
Rf740	GNDA#184	GNDA#185	2.165625	$MET1	$W=3.2e-07
+ $X=174.625 $Y=34.948
Rf741	GNDA#185	GNDA#186	2.171641	$MET1	$W=3.2e-07
+ $X=174.625 $Y=25.923
Rf742	GNDA#186	GNDA#187	2.360984	$MET1	$W=3.2e-07
+ $X=174.625 $Y=16.5755
Rf743	GNDA#181	GNDA#182	0.394737	$MET1	$W=3.2e-07
+ $X=174.625 $Y=57.315
Rf744	GNDA#181	GNDA#183	0.394737	$MET1	$W=3.2e-07
+ $X=174.625 $Y=48.385
Rf745	GNDA#181	GNDA#184	0.394737	$MET1	$W=3.2e-07
+ $X=174.625 $Y=39.435
Rf746	GNDA#181	GNDA#185	0.394737	$MET1	$W=3.2e-07
+ $X=174.625 $Y=30.435
Rf747	GNDA#181	GNDA#186	0.394737	$MET1	$W=3.2e-07
+ $X=174.625 $Y=21.41
Rf748	DEL#49	DEL#136	2.378224	$MET1	$W=3.2e-07
+ $X=219.7505 $Y=125.125
Rf749	DEL#136	DEL#137	2.148781	$MET1	$W=3.2e-07
+ $X=210.8205 $Y=125.125
Rf750	DEL#137	DEL#138	1.549084	$MET1	$W=3.2e-07
+ $X=201.0105 $Y=125.125
Rf751	DEL#138	DEL#139	0.593803	$MET1	$W=3.2e-07
+ $X=198.65 $Y=125.125
Rf752	DEL#139	DEL#140	2.165625	$MET1	$W=3.2e-07
+ $X=195.043 $Y=125.125
Rf753	DEL#140	DEL#55	2.566377	$MET1	$W=3.2e-07
+ $X=183.893 $Y=125.125
Rf754	DEL#138	DEL#142	1.195480	$MET1	$W=3.2e-07
+ $X=199.895 $Y=125.47
Rf755	DEL#56	DEL#144	2.378224	$MET1	$W=3.2e-07
+ $X=219.7505 $Y=67.285
Rf756	DEL#144	DEL#145	2.148781	$MET1	$W=3.2e-07
+ $X=210.8205 $Y=67.285
Rf757	DEL#145	DEL#146	1.549084	$MET1	$W=3.2e-07
+ $X=201.0105 $Y=67.285
Rf758	DEL#146	DEL#147	0.593803	$MET1	$W=3.2e-07
+ $X=198.65 $Y=67.285
Rf759	DEL#147	DEL#148	2.165625	$MET1	$W=3.2e-07
+ $X=195.043 $Y=67.285
Rf760	DEL#148	DEL#62	2.566377	$MET1	$W=3.2e-07
+ $X=183.893 $Y=67.285
Rf761	DEL#146	DEL#150	1.195480	$MET1	$W=3.2e-07
+ $X=199.895 $Y=67.63
Rf762	GNDA#188	GNDA#189	2.378224	$MET1	$W=3.2e-07
+ $X=225.165 $Y=122.205
Rf763	GNDA#189	GNDA#190	2.148781	$MET1	$W=3.2e-07
+ $X=225.165 $Y=110.6905
Rf764	GNDA#190	GNDA#191	2.153594	$MET1	$W=3.2e-07
+ $X=225.165 $Y=101.7605
Rf765	GNDA#191	GNDA#192	2.165625	$MET1	$W=3.2e-07
+ $X=225.165 $Y=92.788
Rf766	GNDA#192	GNDA#193	2.171641	$MET1	$W=3.2e-07
+ $X=225.165 $Y=83.763
Rf767	GNDA#193	GNDA#194	2.360984	$MET1	$W=3.2e-07
+ $X=225.165 $Y=74.4155
Rf768	GNDA#188	GNDA#189	0.394737	$MET1	$W=3.2e-07
+ $X=225.165 $Y=115.155
Rf769	GNDA#188	GNDA#190	0.394737	$MET1	$W=3.2e-07
+ $X=225.165 $Y=106.225
Rf770	GNDA#188	GNDA#191	0.394737	$MET1	$W=3.2e-07
+ $X=225.165 $Y=97.275
Rf771	GNDA#188	GNDA#192	0.394737	$MET1	$W=3.2e-07
+ $X=225.165 $Y=88.275
Rf772	GNDA#188	GNDA#193	0.394737	$MET1	$W=3.2e-07
+ $X=225.165 $Y=79.25
Rf773	GNDA#195	GNDA#196	2.378224	$MET1	$W=3.2e-07
+ $X=225.165 $Y=64.365
Rf774	GNDA#196	GNDA#197	2.148781	$MET1	$W=3.2e-07
+ $X=225.165 $Y=52.8505
Rf775	GNDA#197	GNDA#198	2.153594	$MET1	$W=3.2e-07
+ $X=225.165 $Y=43.9205
Rf776	GNDA#198	GNDA#199	2.165625	$MET1	$W=3.2e-07
+ $X=225.165 $Y=34.948
Rf777	GNDA#199	GNDA#200	2.171641	$MET1	$W=3.2e-07
+ $X=225.165 $Y=25.923
Rf778	GNDA#200	GNDA#201	2.360984	$MET1	$W=3.2e-07
+ $X=225.165 $Y=16.5755
Rf779	GNDA#195	GNDA#196	0.394737	$MET1	$W=3.2e-07
+ $X=225.165 $Y=57.315
Rf780	GNDA#195	GNDA#197	0.394737	$MET1	$W=3.2e-07
+ $X=225.165 $Y=48.385
Rf781	GNDA#195	GNDA#198	0.394737	$MET1	$W=3.2e-07
+ $X=225.165 $Y=39.435
Rf782	GNDA#195	GNDA#199	0.394737	$MET1	$W=3.2e-07
+ $X=225.165 $Y=30.435
Rf783	GNDA#195	GNDA#200	0.394737	$MET1	$W=3.2e-07
+ $X=225.165 $Y=21.41
Rf784	GNDA#202	GNDA#203	2.378224	$MET1	$W=3.2e-07
+ $X=227.625 $Y=122.205
Rf785	GNDA#203	GNDA#204	2.148781	$MET1	$W=3.2e-07
+ $X=227.625 $Y=110.6905
Rf786	GNDA#204	GNDA#205	2.153594	$MET1	$W=3.2e-07
+ $X=227.625 $Y=101.7605
Rf787	GNDA#205	GNDA#206	2.165625	$MET1	$W=3.2e-07
+ $X=227.625 $Y=92.788
Rf788	GNDA#206	GNDA#207	2.171641	$MET1	$W=3.2e-07
+ $X=227.625 $Y=83.763
Rf789	GNDA#207	GNDA#208	2.360984	$MET1	$W=3.2e-07
+ $X=227.625 $Y=74.4155
Rf790	GNDA#202	GNDA#203	0.394737	$MET1	$W=3.2e-07
+ $X=227.625 $Y=115.155
Rf791	GNDA#202	GNDA#204	0.394737	$MET1	$W=3.2e-07
+ $X=227.625 $Y=106.225
Rf792	GNDA#202	GNDA#205	0.394737	$MET1	$W=3.2e-07
+ $X=227.625 $Y=97.275
Rf793	GNDA#202	GNDA#206	0.394737	$MET1	$W=3.2e-07
+ $X=227.625 $Y=88.275
Rf794	GNDA#202	GNDA#207	0.394737	$MET1	$W=3.2e-07
+ $X=227.625 $Y=79.25
Rf795	GNDA#209	GNDA#210	2.378224	$MET1	$W=3.2e-07
+ $X=227.625 $Y=64.365
Rf796	GNDA#210	GNDA#211	2.148781	$MET1	$W=3.2e-07
+ $X=227.625 $Y=52.8505
Rf797	GNDA#211	GNDA#212	2.153594	$MET1	$W=3.2e-07
+ $X=227.625 $Y=43.9205
Rf798	GNDA#212	GNDA#213	2.165625	$MET1	$W=3.2e-07
+ $X=227.625 $Y=34.948
Rf799	GNDA#213	GNDA#214	2.171641	$MET1	$W=3.2e-07
+ $X=227.625 $Y=25.923
Rf800	GNDA#214	GNDA#215	2.360984	$MET1	$W=3.2e-07
+ $X=227.625 $Y=16.5755
Rf801	GNDA#209	GNDA#210	0.394737	$MET1	$W=3.2e-07
+ $X=227.625 $Y=57.315
Rf802	GNDA#209	GNDA#211	0.394737	$MET1	$W=3.2e-07
+ $X=227.625 $Y=48.385
Rf803	GNDA#209	GNDA#212	0.394737	$MET1	$W=3.2e-07
+ $X=227.625 $Y=39.435
Rf804	GNDA#209	GNDA#213	0.394737	$MET1	$W=3.2e-07
+ $X=227.625 $Y=30.435
Rf805	GNDA#209	GNDA#214	0.394737	$MET1	$W=3.2e-07
+ $X=227.625 $Y=21.41
Rf806	DEL#63	DEL#152	2.378224	$MET1	$W=3.2e-07
+ $X=272.7505 $Y=125.125
Rf807	DEL#152	DEL#153	2.148781	$MET1	$W=3.2e-07
+ $X=263.8205 $Y=125.125
Rf808	DEL#153	DEL#154	1.549084	$MET1	$W=3.2e-07
+ $X=254.0105 $Y=125.125
[...]
C2150	VDDA#57	VDDA#5	1.30993e-17	$X=32.1385 $Y=183.8045
C2151	GNDA#513	GNDA	3.13154e-16	$X=80.3605 $Y=138.914
C2152	net1#151	VDDA#9	3.70024e-17	$X=77.2355 $Y=209.7385
C2153	net1#9	VDDA	5.02256e-16	$X=42.1665 $Y=207.921
C2154	net9#15	net1#17	8.28235e-17	$X=49.703 $Y=184.8365
C2155	net10#2	net10#9	3.19782e-16	$X=82.281 $Y=146.6425
C2156	DEL#171	net1#129	7.62198e-16	$X=67.2395 $Y=228.348
C2157	VDDA#279	VDDA#158	6.78984e-17	$X=89.233 $Y=218.1185
C2158	net9#18	net1#27	1.30993e-17	$X=60.315 $Y=204.03
C2159	net1#11	VDDA	5.02256e-16	$X=42.168 $Y=189.8765
C2160	BIAS#47	BIAS#9	1.30993e-17	$X=39.0265 $Y=159.782
C2161	net1#21	net1#27	4.0837e-17	$X=57.7345 $Y=207.934
C2162	DEL#79	net1#11	2.65868e-16	$X=43.5515 $Y=191.3945
C2163	VDDA#131	VDDA#7	8.28235e-17	$X=81.3725 $Y=219.851
C2164	VDDA#72	net1#15	8.28235e-17	$X=46.812 $Y=202.326
C2165	GNDA#57	BIAS#9	8.28235e-17	$X=39.538 $Y=160.979
C2166	DEL#171	VDDA#63	1.96014e-17	$X=40.193 $Y=198.194
C2167	GNDA#235	GNDA	3.2818e-14	$X=258.094 $Y=4.4185
C2168	VDDA#164	VDDA#15	1.10112e-16	$X=87.374 $Y=183.793
C2169	VDDA#111	net1#35	1.30993e-17	$X=69.103 $Y=184.289
C2170	GNDA#236	GNDA	3.81842e-14	$X=142.7505 $Y=6.514
C2171	VDDA#48	net1#5	1.30993e-17	$X=34.006 $Y=184.3455
C2172	DEL#171	net1#25	3.14931e-16	$X=61.398 $Y=225.5545
C2173	GNDA#238	GNDA	2.18289e-15	$X=7.175 $Y=13.037
C2174	net1	VDDA	4.70714e-16	$X=35.9315 $Y=225.9385
C2175	BIAS#61	BIAS#13	1.30993e-17	$X=45.2665 $Y=159.782
C2176	net1#56	net1#5	1.56037e-17	$X=34.9285 $Y=191.8715
C2177	net1#3	VDDA	5.0222e-16	$X=35.932 $Y=207.921
C2178	DEL#171	VDDA#137	2.34683e-17	$X=83.05 $Y=217.139
C2179	net9#9	net1#9	8.28235e-17	$X=42.84 $Y=203.5585
C2180	net1#5	VDDA	5.0222e-16	$X=35.9335 $Y=189.8765
C2181	VDDA#99	net1#27	1.30993e-17	$X=62.8115 $Y=202.326
C2182	DEL#171	VDDA#42	2.34683e-17	$X=33.716 $Y=215.9255
C2183	VDDA#66	net1#5	1.30993e-17	$X=37.903 $Y=184.289
C2184	BIAS#72	BIAS#15	5.91032e-17	$X=48.8205 $Y=153.314
C2185	GNDA#270	BIAS#13	9.33684e-18	$X=47.188 $Y=165.718
C2186	GNDA#270	BIAS#9	9.33684e-18	$X=40.9765 $Y=165.718
C2187	GNDA#270	BIAS#1	9.33684e-18	$X=28.554 $Y=165.718
C2188	GNDA#270	BIAS#17	9.33882e-18	$X=53.3995 $Y=165.718
C2189	GNDA#270	BIAS#5	9.33882e-18	$X=34.765 $Y=165.718
C2190	net1#122	VDDA#90	7.76996e-18	$X=59.81 $Y=194.1485
C2191	net1#100	VDDA#78	7.76996e-18	$X=53.57 $Y=212.2085
C2192	net1#104	VDDA#81	7.76996e-18	$X=53.727 $Y=194.455
C2193	net1#92	VDDA#72	7.76996e-18	$X=47.487 $Y=194.455
C2194	net1#70	VDDA#60	7.76996e-18	$X=41.09 $Y=212.2085
C2195	net1#52	VDDA#42	7.76996e-18	$X=33.997 $Y=213.1455
C2196	net1#147	VDDA#11	7.94304e-18	$X=79.798 $Y=227.4995
C2197	net1#194	VDDA#3	9.04532e-18	$X=27.1665 $Y=209.145
C2198	net1#207	VDDA#5	9.04532e-18	$X=27.105 $Y=191.1505
C2199	GNDA#502	XI0/net31#7	1.11327e-18	$X=100.993 $Y=157.669
C2200	GNDA#508	XI0/net31#13	1.12453e-18
+ $X=104.0345 $Y=156.8585
C2201	GNDA#502	XI0/net31#2	1.18693e-18	$X=106.855 $Y=157.884
C2202	GNDA#508	XI0/net31#6	2.42436e-18	$X=101.825 $Y=157.671
C2203	POR_OUT_L#4	XI0/net31#6	5.0548e-19	$X=103.46 $Y=157.438
C2204	POR_OUT_L#4	XI0/net31#3	5.78723e-19	$X=105.256 $Y=157.508
C2205	POR_OUT_L#2	XI0/net31#14	6.02648e-19	$X=104.501 $Y=159.0115
C2206	POR_OUT_L#3	XI0/net31#6	6.78896e-19
+ $X=103.7605 $Y=157.8935
C2207	POR_OUT_L#3	XI0/net31#3	6.9731e-19	$X=105.281 $Y=157.899
C2208	POR_OUT_L#6	XI0/net31#10	7.26696e-19	$X=105.5745 $Y=159.014
C2209	POR_OUT_L#6	XI0/net31#3	9.51776e-19	$X=105.511 $Y=158.1575
C2210	VDDA#215	XI0/net31#4	7.92522e-19	$X=105.1925 $Y=158.099
C2211	VDDA#213	XI0/net31#13	7.9593e-19	$X=103.8765 $Y=157.007
C2212	VDDA#215	XI0/net31#2	9.61648e-19	$X=106.8385 $Y=158.066
C2213	XI0/net31#18	VDDA	9.72162e-19	$X=99.034 $Y=157.315
C2214	VDDA#215	XI0/net31#3	1.00471e-18	$X=106.025 $Y=158.099
C2215	VDDA#213	XI0/net31#4	1.12374e-18	$X=104.437 $Y=157.7955
C2216	VDDA#220	XI0/net31#4	1.41119e-18	$X=105.226 $Y=158.3685
C2217	VDDA#216	XI0/net31#10	1.45179e-18	$X=105.955 $Y=159.193
C2218	XI0/net31#20	VDDA#211	1.64011e-18	$X=98.4105 $Y=158.615
C2219	VDDA#220	XI0/net31#3	1.75103e-18	$X=105.821 $Y=158.3685
C2220	DEL#167	A#3	8.47778e-18	$X=93.7575 $Y=161.533
C2221	XI0/net31#7	DEL#18	1.18123e-18	$X=99.9155 $Y=156.9705
C2222	DEL#15	XI0/net31#16	1.40463e-18	$X=100.6225 $Y=159.161
C2223	XI0/net31#20	DEL#16	2.41307e-18	$X=99.1325 $Y=158.092
C2224	XI0/net31#18	XI0/net31#7	9.43705e-19	$X=99.7355 $Y=157.45
C2225	XI0/net31#15	XI0/net31#13	1.06424e-18
+ $X=103.0755 $Y=156.8495
C2226	XI0/net31#6	XI0/net31#5	1.2665e-18	$X=103.0355 $Y=157.882
C2227	XI0/net31#7	XI0/net31#15	2.425e-18	$X=101.6375 $Y=157.004
C2228	BIAS	GNDA	3.41407e-16	$X=15.255 $Y=163.788
C2229	POR_OUT_L	GNDA	1.75891e-16	$X=109.6485 $Y=157.724
C2230	VDDA	GNDA	1.25403e-14	$X=80.4985 $Y=192.167
C2231	DEL#66	GNDA	6.53347e-15	$X=252.635 $Y=99.814
C2232	DEL#73	GNDA	6.53347e-15	$X=252.635 $Y=42.1155
C2233	DEL#52	GNDA	6.53345e-15	$X=199.7645 $Y=99.814
C2234	DEL#59	GNDA	6.53345e-15	$X=199.7645 $Y=42.1155
C2235	DEL#38	GNDA	6.53347e-15	$X=146.894 $Y=99.814
C2236	DEL#45	GNDA	6.42273e-15	$X=146.894 $Y=42.1155
C2237	DEL#24	GNDA	6.53347e-15	$X=94.0235 $Y=99.814
C2238	DEL#31	GNDA	6.53345e-15	$X=94.0235 $Y=42.1155
C2239	DEL#4	GNDA	6.53347e-15	$X=41.153 $Y=99.814
C2240	DEL#11	GNDA	6.53347e-15	$X=41.153 $Y=42.1155
C2241	C#5	GNDA	4.68749e-16	$X=302.999 $Y=14.7045
C2242	VDDA#17	GNDA	6.02887e-16	$X=290.339 $Y=136.404
C2243	C#3	GNDA	6.10156e-16	$X=124.1995 $Y=136.404
C2244	XI0/net31	GNDA	2.84787e-20	$X=106.8695 $Y=159.165
C2245	XI0/net31#10	GNDA	2.49563e-22	$X=105.9795 $Y=159.1645
C2246	XI0/net31#12	GNDA	3.25082e-19	$X=105.0895 $Y=159.1645
C2247	XI0/net31#14	GNDA	1.51821e-18	$X=104.1995 $Y=159.1645
C2248	XI0/net31#16	GNDA	1.59034e-18	$X=101.8695 $Y=159.1805
C2249	DEL#15	GNDA	8.80597e-19	$X=99.5895 $Y=159.144
C2250	VDDA#12	GNDA	1.1438e-17	$X=85.815 $Y=219.4805
C2251	VDDA#16	GNDA	1.42444e-17	$X=85.815 $Y=183.361
C2252	C#2	GNDA	2.14042e-17	$X=83.6795 $Y=162.917
C2253	BG_REF#2	GNDA	3.98639e-18	$X=81.9395 $Y=162.917
C2254	net1#40	GNDA	5.0773e-19	$X=73.335 $Y=201.421
C2255	VDDA#2	GNDA	1.12619e-17	$X=29.6555 $Y=219.4805
C2256	VDDA#6	GNDA	1.38185e-17	$X=29.6555 $Y=183.361
C2257	XI0/net31#8	GNDA	2.46168e-17	$X=106.8695 $Y=156.914
C2258	XI0/net31#9	GNDA	2.75576e-17	$X=105.9795 $Y=156.914
C2259	XI0/net31#11	GNDA	2.76186e-17	$X=105.0095 $Y=156.914
C2260	XI0/net31#13	GNDA	2.07934e-17	$X=104.1195 $Y=156.914
C2261	XI0/net31#15	GNDA	9.30199e-18	$X=101.8695 $Y=156.775
C2262	DEL#18	GNDA	4.0037e-17	$X=99.5895 $Y=156.745
C2263	DEL#19	GNDA	4.41913e-17	$X=98.6995 $Y=156.759
C2264	A	GNDA	2.97986e-17	$X=94.5395 $Y=158.2365
C2265	A#4	GNDA	2.93757e-17	$X=93.6495 $Y=158.237
C2266	BIAS#22	GNDA	3.08841e-16	$X=59.6755 $Y=144.4215
C2267	BIAS#18	GNDA	3.08603e-16	$X=53.4355 $Y=159.3915
C2268	BIAS#20	GNDA	3.08841e-16	$X=53.4355 $Y=144.4215
C2269	BIAS#14	GNDA	3.08603e-16	$X=47.1955 $Y=159.3915
C2270	BIAS#16	GNDA	3.08841e-16	$X=47.1955 $Y=144.4215
C2271	BIAS#10	GNDA	3.08603e-16	$X=40.9555 $Y=159.3915
C2272	BIAS#12	GNDA	3.08841e-16	$X=40.9555 $Y=144.4215
C2273	BIAS#6	GNDA	3.08603e-16	$X=34.7155 $Y=159.3915
C2274	BIAS#8	GNDA	3.08841e-16	$X=34.7155 $Y=144.4215
C2275	BIAS#2	GNDA	3.08603e-16	$X=28.4755 $Y=159.3915
C2276	BIAS#4	GNDA	3.08841e-16	$X=28.4755 $Y=144.4215
C2277	DEL#176	GNDA	2.12198e-15	$X=280.103 $Y=120.258
C2278	DEL#184	GNDA	2.27062e-15	$X=280.103 $Y=76.13
C2279	C#18	GNDA	1.11841e-15	$X=124.4345 $Y=150.076
C2280	DEL#180	GNDA	1.58123e-15	$X=103.3875 $Y=130.491
C2281	C#15	GNDA	1.65575e-15	$X=102.314 $Y=166.919
C2282	net1#174	GNDA	2.53039e-18	$X=93.66 $Y=227.3155
C2283	net1#183	GNDA	3.79548e-18	$X=93.66 $Y=211.0775
C2284	net1#195	GNDA	8.37555e-18	$X=94.44 $Y=193.128
C2285	net9#40	GNDA	7.41533e-18	$X=92.894 $Y=212.358
C2286	net9#46	GNDA	5.0773e-19	$X=90.554 $Y=194.4075
C2287	net9#50	GNDA	1.29853e-16	$X=92.894 $Y=177.8215
C2288	DEL#175	GNDA	8.25522e-16	$X=95.3845 $Y=154.2635
C2289	DEL#167	GNDA	6.05652e-16	$X=94.996 $Y=164.3535
C2290	VDDA#279	GNDA	3.24618e-17	$X=93.5235 $Y=230.1465
C2291	VDDA#225	GNDA	6.74987e-18	$X=92.7755 $Y=213.637
C2292	VDDA#243	GNDA	6.74987e-18	$X=92.7755 $Y=195.6875
C2293	net9#36	GNDA	3.60876e-16	$X=80.6405 $Y=162.941
C2294	BIAS#97	GNDA	5.8105e-16	$X=70.615 $Y=165.69
C2295	BIAS#104	GNDA	4.87785e-16	$X=71.3955 $Y=152.401
C2296	BIAS#117	GNDA	2.54215e-16	$X=71.7415 $Y=138.64
C2297	VDDA#283	GNDA	3.23181e-17	$X=22.3925 $Y=230.147
C2298	VDDA#242	GNDA	6.74987e-18	$X=23.1415 $Y=213.637
C2299	VDDA#259	GNDA	6.74987e-18	$X=23.1415 $Y=195.6875
C2300	net1#182	GNDA	2.53039e-18	$X=22.588 $Y=227.3155
C2301	net1#194	GNDA	3.79548e-18	$X=22.588 $Y=211.078
C2302	net1#207	GNDA	3.79548e-18	$X=22.588 $Y=193.128
C2303	net1#172	GNDA	1.19235e-17	$X=23.714 $Y=177.531
C2304	net9#45	GNDA	5.33404e-18	$X=21.822 $Y=212.358
C2305	net9#55	GNDA	6.07095e-18	$X=21.8215 $Y=178.491
C2306	BIAS#103	GNDA	3.00987e-16	$X=18.2545 $Y=167.374
C2307	BIAS#116	GNDA	7.20667e-16	$X=16.756 $Y=152.2915
C2308	BIAS#123	GNDA	4.19861e-16	$X=17.1015 $Y=138.64
C2309	DEL#183	GNDA	7.47637e-16	$X=13.6855 $Y=120.258
C2310	DEL#190	GNDA	8.20611e-16	$X=13.6855 $Y=76.13
C2311	C#14	GNDA	1.17241e-14	$X=303.3825 $Y=44.1215
C2312	VDDA#223	GNDA	1.25342e-14	$X=290.3235 $Y=143.2715
C2313	DEL#158	GNDA	1.627e-15	$X=249.96 $Y=127.0765
C2314	DEL#166	GNDA	1.87606e-15	$X=249.96 $Y=69.239
C2315	DEL#142	GNDA	2.11897e-15	$X=199.8915 $Y=127.076
C2316	DEL#150	GNDA	2.43523e-15	$X=199.8915 $Y=69.239
C2317	DEL#126	GNDA	1.97381e-15	$X=147.5395 $Y=127.076
C2318	DEL#134	GNDA	2.43523e-15	$X=146.8945 $Y=69.239
C2319	C#11	GNDA	8.82651e-16	$X=125.7335 $Y=135.04
C2320	POR_OUT_L#2	GNDA	5.98041e-17	$X=106.975 $Y=157.754
C2321	VDDA#216	GNDA	1.02255e-15	$X=103.16 $Y=162.4315
C2322	VDDA#165	GNDA	5.60049e-16	$X=100.6595 $Y=235.8965
C2323	DEL#102	GNDA	8.37449e-17	$X=98.547 $Y=157.804
C2324	A#9	GNDA	5.21685e-16	$X=94.2735 $Y=162.1065
C2325	DEL#100	GNDA	9.9208e-18	$X=94.0945 $Y=158.934
C2326	DEL#110	GNDA	1.11733e-15	$X=87.5765 $Y=127.077
C2327	DEL#118	GNDA	2.43523e-15	$X=93.897 $Y=69.239
C2328	net10#16	GNDA	2.69147e-16	$X=88.3895 $Y=136.379
C2329	net10#13	GNDA	2.17495e-16	$X=88.4245 $Y=146.7715
C2330	VDDA#158	GNDA	6.32587e-18	$X=88.497 $Y=216.0525
C2331	VDDA#161	GNDA	3.79548e-18	$X=88.497 $Y=197.992
C2332	VDDA#164	GNDA	3.97448e-18	$X=88.266 $Y=180.2255
C2333	VDDA#147	GNDA	6.74987e-18	$X=85.476 $Y=230.7625
C2334	VDDA#151	GNDA	6.74987e-18	$X=85.8145 $Y=213.0875
C2335	VDDA#155	GNDA	6.74987e-18	$X=85.8145 $Y=195.0275
C2336	A#8	GNDA	3.21924e-16	$X=85.2625 $Y=137.9365
C2337	C#8	GNDA	2.87084e-16	$X=84.159 $Y=166.875
C2338	A#6	GNDA	2.91971e-18	$X=83.5885 $Y=156.6075
C2339	net9#34	GNDA	7.22272e-18	$X=83.694 $Y=159.7225
C2340	VDDA#137	GNDA	6.32587e-18	$X=83.0445 $Y=217.2315
C2341	VDDA#140	GNDA	3.79548e-18	$X=83.0445 $Y=199.1715
C2342	VDDA#143	GNDA	5.71773e-18	$X=82.986 $Y=180.2255
C2343	net10#9	GNDA	1.71518e-16	$X=82.2965 $Y=146.7715
C2344	net10#6	GNDA	2.31807e-16	$X=82.137 $Y=158.165
C2345	VDDA#131	GNDA	6.32587e-18	$X=82.461 $Y=216.0525
C2346	VDDA#134	GNDA	5.77574e-18	$X=82.2305 $Y=197.9925
C2347	net1#165	GNDA	3.97448e-18	$X=82.9005 $Y=178.5185
C2348	net9#32	GNDA	2.91971e-18	$X=81.1555 $Y=159.7225
C2349	VDDA#124	GNDA	9.67372e-18	$X=74.115 $Y=230.7615
C2350	net1#162	GNDA	1.15585e-17	$X=81.1185 $Y=192.7875
C2351	VDDA#114	GNDA	6.32587e-18	$X=76.5155 $Y=216.052
C2352	VDDA#117	GNDA	1.98724e-18	$X=76.746 $Y=197.9925
C2353	VDDA#120	GNDA	3.97448e-18	$X=76.8045 $Y=180.2255
C2354	net9#27	GNDA	6.55304e-18	$X=76.524 $Y=215.1985
C2355	net1#158	GNDA	9.52165e-18	$X=76.1625 $Y=196.2855
C2356	net9#30	GNDA	4.3063e-18	$X=76.524 $Y=179.372
C2357	net1#147	GNDA	1.2652e-17	$X=75.312 $Y=228.522
C2358	net1#151	GNDA	2.1049e-17	$X=75.6585 $Y=210.8475
C2359	net1#155	GNDA	7.76996e-18	$X=72.901 $Y=192.7875
C2360	VDDA#105	GNDA	6.50488e-18	$X=70.5645 $Y=216.0515
C2361	VDDA#108	GNDA	7.76996e-18	$X=70.5645 $Y=197.9925
C2362	net1#140	GNDA	1.2052e-17	$X=69.9225 $Y=214.345
C2363	net1#143	GNDA	3.97448e-18	$X=69.248 $Y=178.519
C2364	net1#129	GNDA	8.93299e-18	$X=67.0945 $Y=228.5225
C2365	net1#133	GNDA	7.76996e-18	$X=66.661 $Y=210.8475
C2366	net1#137	GNDA	3.97448e-18	$X=67.441 $Y=192.7875
C2367	VDDA#96	GNDA	1.03004e-17	$X=64.3245 $Y=216.052
C2368	VDDA#99	GNDA	3.97448e-18	$X=64.3245 $Y=197.992
C2369	VDDA#102	GNDA	3.97448e-18	$X=64.3245 $Y=180.2255
C2370	net9#21	GNDA	2.53039e-18	$X=63.625 $Y=215.1985
C2371	net1#125	GNDA	9.52165e-18	$X=63.6825 $Y=196.2855
C2372	BIAS#96	GNDA	3.733e-16	$X=62.731 $Y=140.1805
C2373	net1#114	GNDA	8.93299e-18	$X=60.8545 $Y=228.5225
C2374	net1#118	GNDA	3.97448e-18	$X=61.201 $Y=210.8475
C2375	BIAS#93	GNDA	2.55595e-16	$X=60.796 $Y=152.364
C2376	VDDA#87	GNDA	6.50488e-18	$X=58.0845 $Y=216.052
C2377	net1#107	GNDA	1.2052e-17	$X=57.4425 $Y=214.345
C2378	net1#110	GNDA	3.97448e-18	$X=57.385 $Y=178.5185
C2379	BIAS#86	GNDA	2.06545e-16	$X=56.2625 $Y=155.164
C2380	BIAS#89	GNDA	3.15734e-16	$X=56.205 $Y=140.1805
C2381	net1#96	GNDA	8.9262e-18	$X=54.6145 $Y=228.5225
C2382	BIAS#79	GNDA	4.70272e-16	$X=54.99 $Y=167.334
C2383	BIAS#83	GNDA	1.06387e-16	$X=53.347 $Y=152.364
C2384	VDDA#78	GNDA	2.53039e-18	$X=51.8445 $Y=216.052
C2385	VDDA#84	GNDA	3.97448e-18	$X=51.8445 $Y=180.2255
C2386	net9#12	GNDA	2.53039e-18	$X=51.145 $Y=215.1985
C2387	BIAS#72	GNDA	2.06545e-16	$X=50.0225 $Y=155.164
C2388	BIAS#75	GNDA	3.70688e-16	$X=49.445 $Y=140.1805
C2389	net1#84	GNDA	8.93299e-18	$X=48.3745 $Y=228.5225
C2390	net1#88	GNDA	3.97448e-18	$X=48.721 $Y=210.8475
C2391	BIAS#65	GNDA	2.48674e-16	$X=47.1945 $Y=167.334
C2392	BIAS#69	GNDA	1.06387e-16	$X=47.107 $Y=152.364
C2393	VDDA#69	GNDA	6.50488e-18	$X=45.6045 $Y=216.052
C2394	net1#77	GNDA	1.2052e-17	$X=44.9625 $Y=214.345
C2395	net1#80	GNDA	3.97448e-18	$X=44.024 $Y=178.5185
C2396	BIAS#61	GNDA	2.06545e-16	$X=43.7825 $Y=155.164
C2397	net1#62	GNDA	2.06992e-15	$X=43.98 $Y=138.953
C2398	net1#66	GNDA	8.93299e-18	$X=42.1345 $Y=228.5225
C2399	net1#74	GNDA	3.97448e-18	$X=42.481 $Y=192.7875
C2400	BIAS#54	GNDA	2.48674e-16	$X=40.9545 $Y=167.334
C2401	BIAS#58	GNDA	1.06387e-16	$X=40.867 $Y=152.364
C2402	DEL#87	GNDA	1.62719e-15	$X=43.8285 $Y=127.0765
C2403	DEL#95	GNDA	1.8761e-15	$X=43.8285 $Y=69.239
C2404	VDDA#60	GNDA	2.53039e-18	$X=39.365 $Y=216.052
C2405	VDDA#63	GNDA	3.97448e-18	$X=39.365 $Y=197.992
C2406	VDDA#66	GNDA	3.97448e-18	$X=39.365 $Y=180.2255
C2407	net9#3	GNDA	8.4583e-18	$X=38.156 $Y=215.1985
C2408	net1#59	GNDA	9.52165e-18	$X=38.7225 $Y=196.2855
C2409	net9#6	GNDA	7.74752e-18	$X=38.156 $Y=179.372
C2410	BIAS#47	GNDA	2.06545e-16	$X=37.543 $Y=155.164
C2411	BIAS#50	GNDA	3.76466e-16	$X=38.005 $Y=140.1805
C2412	net1#48	GNDA	7.59118e-18	$X=34.9195 $Y=228.5225
C2413	net1#52	GNDA	3.79548e-18	$X=34.9195 $Y=210.8475
C2414	net1#56	GNDA	1.15588e-17	$X=34.486 $Y=192.7875
C2415	BIAS#40	GNDA	2.4865e-16	$X=34.7145 $Y=167.334
C2416	BIAS#44	GNDA	1.06387e-16	$X=34.627 $Y=152.364
C2417	VDDA#51	GNDA	6.32587e-18	$X=33.1245 $Y=217.2315
C2418	VDDA#54	GNDA	3.79548e-18	$X=33.1245 $Y=199.1715
C2419	VDDA#57	GNDA	3.97448e-18	$X=33.1245 $Y=181.3315
C2420	VDDA#42	GNDA	2.53039e-18	$X=32.831 $Y=216.052
C2421	VDDA#45	GNDA	7.7633e-18	$X=32.831 $Y=197.992
C2422	VDDA#48	GNDA	3.97448e-18	$X=32.6 $Y=180.2255
C2423	BIAS#33	GNDA	2.06545e-16	$X=31.303 $Y=155.164
C2424	BIAS#36	GNDA	4.59314e-16	$X=30.4975 $Y=140.1805
C2425	VDDA#31	GNDA	1.64304e-17	$X=35.454 $Y=230.7615
C2426	VDDA#35	GNDA	6.74987e-18	$X=29.6545 $Y=213.0875
C2427	VDDA#39	GNDA	6.74987e-18	$X=29.6545 $Y=195.0275
C2428	BIAS#26	GNDA	3.63579e-16	$X=27.7 $Y=167.334
C2429	BIAS#30	GNDA	2.48306e-16	$X=27.266 $Y=152.364
C2430	VDDA#21	GNDA	6.32587e-18	$X=26.972 $Y=216.0525
C2431	VDDA#24	GNDA	3.79548e-18	$X=26.972 $Y=197.992
C2432	VDDA#27	GNDA	3.97448e-18	$X=27.2025 $Y=180.2255
C2433	DEL#63	GNDA	2.83849e-17	$X=275.302 $Y=125.124
C2434	DEL#69	GNDA	2.83849e-17	$X=232.4125 $Y=125.124
C2435	DEL#76	GNDA	2.83849e-17	$X=232.4125 $Y=67.2845
C2436	DEL#49	GNDA	2.83849e-17	$X=222.302 $Y=125.124
C2437	DEL#56	GNDA	2.83849e-17	$X=222.302 $Y=67.2845
C2438	DEL#55	GNDA	2.83849e-17	$X=179.4125 $Y=125.124
C2439	DEL#62	GNDA	2.83849e-17	$X=179.4125 $Y=67.2845
C2440	DEL#35	GNDA	2.83849e-17	$X=169.302 $Y=125.124
C2441	DEL#42	GNDA	2.83849e-17	$X=169.302 $Y=67.2845
C2442	DEL#41	GNDA	2.84154e-17	$X=126.413 $Y=125.124
C2443	DEL#48	GNDA	2.83849e-17	$X=126.413 $Y=67.2845
C2444	DEL#21	GNDA	2.83849e-17	$X=116.3025 $Y=125.124
C2445	DEL#28	GNDA	2.83849e-17	$X=116.3025 $Y=67.2845
C2446	DEL#23	GNDA	4.72356e-18	$X=99.915 $Y=125.124
C2447	XI0/net31#7	GNDA	6.74169e-17	$X=100.948 $Y=157.685
C2448	DEL#17	GNDA	6.08893e-17	$X=98.6995 $Y=157.8555
C2449	A#2	GNDA	5.38914e-17	$X=94.559 $Y=161.463
C2450	A#3	GNDA	3.2735e-17	$X=93.727 $Y=161.463
C2451	net10#4	GNDA	6.55606e-16	$X=88.38 $Y=145.4305
C2452	VDDA#13	GNDA	5.68807e-18	$X=85.8145 $Y=208.0935
C2453	VDDA#15	GNDA	4.58008e-18	$X=85.8145 $Y=190.0335
C2454	net10#2	GNDA	6.31417e-16	$X=82.14 $Y=145.4305
C2455	C	GNDA	9.69376e-18	$X=83.6795 $Y=165.673
C2456	BG_REF#1	GNDA	1.08378e-18	$X=81.9395 $Y=165.7705
C2457	net1#43	GNDA	4.25921e-18	$X=79.5745 $Y=189.873
C2458	DEL#27	GNDA	2.83849e-17	$X=73.413 $Y=125.124
C2459	DEL#34	GNDA	2.83849e-17	$X=73.413 $Y=67.2845
C2460	net1#39	GNDA	4.25921e-18	$X=73.3345 $Y=207.933
C2461	net1#41	GNDA	5.26244e-18	$X=73.3345 $Y=189.873
C2462	net1#33	GNDA	5.26244e-18	$X=67.0945 $Y=207.933
C2463	net1#35	GNDA	4.25921e-18	$X=67.095 $Y=189.873
C2464	DEL	GNDA	2.83849e-17	$X=63.3025 $Y=125.124
C2465	DEL#8	GNDA	2.83849e-17	$X=63.3025 $Y=67.2845
C2466	net1#27	GNDA	4.25921e-18	$X=60.855 $Y=207.933
C2467	net1#29	GNDA	5.26244e-18	$X=60.855 $Y=189.873
C2468	BIAS#21	GNDA	3.80525e-16	$X=59.675 $Y=150.809
C2469	net1#21	GNDA	5.26244e-18	$X=54.615 $Y=207.933
C2470	BIAS#17	GNDA	3.76246e-16	$X=53.435 $Y=165.779
C2471	BIAS#19	GNDA	3.80815e-16	$X=53.435 $Y=150.809
C2472	net1#15	GNDA	4.25921e-18	$X=48.375 $Y=207.933
C2473	BIAS#13	GNDA	3.76068e-16	$X=47.195 $Y=165.779
C2474	BIAS#15	GNDA	3.80815e-16	$X=47.195 $Y=150.809
C2475	net1#9	GNDA	5.26244e-18	$X=42.135 $Y=207.933
C2476	net1#11	GNDA	4.25921e-18	$X=42.135 $Y=189.873
C2477	BIAS#9	GNDA	3.76068e-16	$X=40.955 $Y=165.779
C2478	BIAS#11	GNDA	3.80815e-16	$X=40.955 $Y=150.809
C2479	net1#5	GNDA	5.26244e-18	$X=35.895 $Y=189.873
C2480	BIAS#5	GNDA	3.76068e-16	$X=34.715 $Y=165.779
C2481	BIAS#7	GNDA	3.80815e-16	$X=34.715 $Y=150.809
C2482	BIAS#1	GNDA	3.759e-16	$X=28.475 $Y=165.779
C2483	BIAS#3	GNDA	3.80665e-16	$X=28.475 $Y=150.809
C2484	DEL#7	GNDA	2.83849e-17	$X=20.413 $Y=125.124
C2485	VDDA#211	GNDA	2.89879e-19	$X=103.514 $Y=159.413
C2486	POR_OUT_L#5	GNDA	8.2718e-20	$X=106.4245 $Y=157.0395
C2487	POR_OUT_L#1	GNDA	7.79304e-20	$X=106.4245 $Y=158.959
C2488	POR_OUT_L#4	GNDA	2.2255e-18	$X=104.5595 $Y=157.138
C2489	POR_OUT_L#6	GNDA	6.04658e-19	$X=104.6245 $Y=158.6605
C2490	VDDA#213	GNDA	1.40538e-17	$X=102.5695 $Y=157.508
C2491	XI0/net39	GNDA	4.85259e-18	$X=101.0495 $Y=156.9015
C2492	XI0/net39#2	GNDA	2.49635e-18	$X=99.4355 $Y=156.869
C2493	VDDA#167	GNDA	6.63744e-15	$X=57.942 $Y=205.6105
C2494	DEL#99	GNDA	9.64644e-18	$X=94.0945 $Y=158.934
C2495	net10#15	GNDA	8.18598e-17	$X=91.1345 $Y=142.694
C2496	VDDA#186	GNDA	1.44894e-16	$X=83.2685 $Y=162.089
C2497	A#7	GNDA	4.56785e-17	$X=84.8945 $Y=142.9165
C2498	XI0/net14#2	GNDA	7.704e-21	$X=99.343 $Y=158.6975
C2499	XI0/net31#20	GNDA	2.61497e-18	$X=98.248 $Y=158.59
C2500	A#5	GNDA	4.84305e-18	$X=84.1845 $Y=162.8955
C2501	net10#5	GNDA	1.24494e-17	$X=82.4445 $Y=163.118
C2502	net9#31	GNDA	4.84305e-18	$X=81.4345 $Y=163.3405
C2503	XI0/net31#18	GNDA	1.89141e-17	$X=99.0345 $Y=157.3145
C2504	VDDA#177	GNDA	8.85329e-16	$X=82.675 $Y=172.2215
C2505	POR_OUT_L#3	GNDA	3.70962e-19	$X=104.7645 $Y=157.9045
C2506	VDDA#215	GNDA	1.4828e-17	$X=106.472 $Y=160.128
C2507	VDDA#218	GNDA	4.34065e-17	$X=99.368 $Y=160.16
C2508	DEL#16	GNDA	4.55775e-17	$X=99.5895 $Y=157.8345
C2509	XI0/net31#2	GNDA	2.24949e-17	$X=106.8695 $Y=157.892
C2510	XI0/net31#3	GNDA	3.03717e-17	$X=105.9795 $Y=157.892
C2511	XI0/net31#4	GNDA	3.13178e-17	$X=105.062 $Y=157.892
C2512	XI0/net31#5	GNDA	4.88596e-17	$X=104.172 $Y=157.8915
C2513	XI0/net31#6	GNDA	6.35168e-17	$X=101.8695 $Y=157.8715
C2514	net10#18	GNDA	6.7878e-16	$X=77.44 $Y=144.5985
C2515	A#13	GNDA	1.00139e-15	$X=88.375 $Y=153.5985
C2516	net1#168	GNDA	1.22604e-15	$X=75.4605 $Y=158.107
C2517	VDDA#275	GNDA	1.57609e-14	$X=151.4435 $Y=170.764
C2518	VDDA#286	GNDA	4.94206e-15	$X=16.623 $Y=239.102
*
*
.ENDS por2
*
