*
*
*
*                       LINUX           Tue Jun 25 15:49:10 2024
*
*
*
*  PROGRAM  advgen
*
*  Name           : advgen - Quantus - (64-bit)
*  Version        : 23.1.0-p075
*  Build Date     : Tue Sep 26 09:11:43 PDT 2023
*
*  HSPICE LIBRARY
*
* GLOBAL_TEMPERATURE 27
*  OPERATING_TEMPERATURE 27
*  QRC_TECH_DIR /home/saul/pkg/xfab/XKIT/xh018/cadence/v9_0/QRC_pvs/v9_0_1/XH018_1143/QRC-Typ 
*
*!LENGTH_UNITS METERS
*
*
*

*
.SUBCKT bandgap_su BIAS GNDA OUT VDD3A
*
*
*  caps2d version: 10
*
*
*       TRANSISTOR CARDS
*
*
MMM29@2	GNDA#156	GNDA#14	GNDA#146	GNDA#167	ne3
+ L=5e-06	W=1e-05
+ AD=4.8e-12	AS=4.8e-12	PD=2.096e-05	PS=2.096e-05
+ NRD=0.0173	NRS=0.0173
MMM29	GNDA#161	GNDA#16	GNDA#149	GNDA#167	ne3
+ L=5e-06	W=1e-05
+ AD=4.8e-12	AS=4.8e-12	PD=2.096e-05	PS=2.096e-05
+ NRD=0.0173	NRS=0.0173
MMM4@6	net15#134	net15#30	GNDA#137	GNDA#167	ne3
+ L=5e-06	W=1e-05
+ AD=4.8e-12	AS=4.8e-12	PD=2.096e-05	PS=2.096e-05
+ NRD=0.0173	NRS=0.0173
MMM2@4	net17#60	net15#32	GNDA#140	GNDA#167	ne3
+ L=5e-06	W=1e-05
+ AD=4.8e-12	AS=4.8e-12	PD=2.096e-05	PS=2.096e-05
+ NRD=0.0173	NRS=0.0173
MMM2	net17#48	net15#26	GNDA#131	GNDA#167	ne3
+ L=5e-06	W=1e-05
+ AD=4.8e-12	AS=4.8e-12	PD=2.096e-05	PS=2.096e-05
+ NRD=0.0173	NRS=0.0173
MMM4@1	net15#121	net15#28	GNDA#134	GNDA#167	ne3
+ L=5e-06	W=1e-05
+ AD=4.8e-12	AS=4.8e-12	PD=2.096e-05	PS=2.096e-05
+ NRD=0.0173	NRS=0.0173
MMM4@3	net15#108	net15#22	GNDA#125	GNDA#167	ne3
+ L=5e-06	W=1e-05
+ AD=4.8e-12	AS=4.8e-12	PD=2.096e-05	PS=2.096e-05
+ NRD=0.0173	NRS=0.0173
MMM2@6	net17#42	net15#24	GNDA#128	GNDA#167	ne3
+ L=5e-06	W=1e-05
+ AD=4.8e-12	AS=4.8e-12	PD=2.096e-05	PS=2.096e-05
+ NRD=0.0173	NRS=0.0173
MMM2@3	net17#36	net15#18	GNDA#119	GNDA#167	ne3
+ L=5e-06	W=1e-05
+ AD=4.8e-12	AS=4.8e-12	PD=2.096e-05	PS=2.096e-05
+ NRD=0.0173	NRS=0.0173
MMM4	net15#95	net15#20	GNDA#122	GNDA#167	ne3
+ L=5e-06	W=1e-05
+ AD=4.8e-12	AS=4.8e-12	PD=2.096e-05	PS=2.096e-05
+ NRD=0.0173	NRS=0.0173
MMM4@4	net15#82	net15#14	GNDA#113	GNDA#167	ne3
+ L=5e-06	W=1e-05
+ AD=4.8e-12	AS=4.8e-12	PD=2.096e-05	PS=2.096e-05
+ NRD=0.0173	NRS=0.0173
MMM2@5	net17#30	net15#16	GNDA#116	GNDA#167	ne3
+ L=5e-06	W=1e-05
+ AD=4.8e-12	AS=4.8e-12	PD=2.096e-05	PS=2.096e-05
+ NRD=0.0173	NRS=0.0173
MMM2@7	net17#24	net15#10	GNDA#107	GNDA#167	ne3
+ L=5e-06	W=1e-05
+ AD=4.8e-12	AS=4.8e-12	PD=2.096e-05	PS=2.096e-05
+ NRD=0.0173	NRS=0.0173
MMM4@2	net15#69	net15#12	GNDA#110	GNDA#167	ne3
+ L=5e-06	W=1e-05
+ AD=4.8e-12	AS=4.8e-12	PD=2.096e-05	PS=2.096e-05
+ NRD=0.0173	NRS=0.0173
MMM4@7	net15#56	net15#6	GNDA#101	GNDA#167	ne3
+ L=5e-06	W=1e-05
+ AD=4.8e-12	AS=4.8e-12	PD=2.096e-05	PS=2.096e-05
+ NRD=0.0173	NRS=0.0173
MMM2@1	net17#18	net15#8	GNDA#104	GNDA#167	ne3
+ L=5e-06	W=1e-05
+ AD=4.8e-12	AS=4.8e-12	PD=2.096e-05	PS=2.096e-05
+ NRD=0.0173	NRS=0.0173
MMM2@2	net17#12	net15#2	GNDA#95	GNDA#167	ne3
+ L=5e-06	W=1e-05
+ AD=4.8e-12	AS=4.8e-12	PD=2.096e-05	PS=2.096e-05
+ NRD=0.0173	NRS=0.0173
MMM4@5	net15#43	net15#4	GNDA#98	GNDA#167	ne3
+ L=5e-06	W=1e-05
+ AD=4.8e-12	AS=4.8e-12	PD=2.096e-05	PS=2.096e-05
+ NRD=0.0173	NRS=0.0173
MMM29@3	GNDA#89	GNDA#10	GNDA#80	GNDA#167	ne3
+ L=5e-06	W=1e-05
+ AD=4.8e-12	AS=4.8e-12	PD=2.096e-05	PS=2.096e-05
+ NRD=0.0173	NRS=0.0173
MMM29@1	GNDA#92	GNDA#12	GNDA#85	GNDA#167	ne3
+ L=5e-06	W=1e-05
+ AD=4.8e-12	AS=4.8e-12	PD=2.096e-05	PS=2.096e-05
+ NRD=0.0173	NRS=0.0173
MMM24	VDD3A#233	VDD3A#9	net22#5	GNDA#167	ne3
+ L=2e-06	W=1e-06
+ AD=4.8e-13	AS=4.8e-13	PD=2.96e-06	PS=2.96e-06
+ NRD=0.173	NRS=0.173
MMM23	net22#3	net22	net21#12	GNDA#167	ne3	L=2e-06
+ W=1e-06
+ AD=4.8e-13	AS=4.8e-13	PD=2.96e-06	PS=2.96e-06
+ NRD=0.173	NRS=0.173
MMM25	net21#7	net21#3	GNDA#165	GNDA#167	ne3
+ L=2e-06	W=1e-06
+ AD=4.8e-13	AS=4.8e-13	PD=2.96e-06	PS=2.96e-06
+ NRD=0.173	NRS=0.173
MMM17	net12#8	net21#2	net7#7	GNDA#167	ne3	L=1e-06
+ W=1e-05
+ AD=4.8e-12	AS=4.8e-12	PD=2.096e-05	PS=2.096e-05
+ NRD=0.0173	NRS=0.0173
MMM16	net10#16	OUT#2	net7#4	GNDA#167	ne3	L=1e-06
+ W=1e-05
+ AD=4.8e-12	AS=4.8e-12	PD=2.096e-05	PS=2.096e-05
+ NRD=0.0173	NRS=0.0173
MMM26@2	GNDA#69	GNDA#6	GNDA#63	GNDA#167	ne3	L=1e-06
+ W=1e-05
+ AD=4.8e-12	AS=4.8e-12	PD=2.096e-05	PS=2.096e-05
+ NRD=0.0173	NRS=0.0173
MMM26@1	GNDA#74	GNDA#8	GNDA#66	GNDA#167	ne3	L=1e-06
+ W=1e-05
+ AD=4.8e-12	AS=4.8e-12	PD=2.096e-05	PS=2.096e-05
+ NRD=0.0173	NRS=0.0173
MMM8@1	net2#16	net6#18	GNDA#57	GNDA#167	ne3
+ L=1e-06	W=1e-05
+ AD=4.8e-12	AS=4.8e-12	PD=2.096e-05	PS=2.096e-05
+ NRD=0.0173	NRS=0.0173
MMM7@2	net6#54	net6#20	GNDA#60	GNDA#167	ne3
+ L=1e-06	W=1e-05
+ AD=4.8e-12	AS=4.8e-12	PD=2.096e-05	PS=2.096e-05
+ NRD=0.0173	NRS=0.0173
MMM7	net6#48	net6#14	GNDA#51	GNDA#167	ne3
+ L=1e-06	W=1e-05
+ AD=4.8e-12	AS=4.8e-12	PD=2.096e-05	PS=2.096e-05
+ NRD=0.0173	NRS=0.0173
MMM8	net2#10	net6#16	GNDA#54	GNDA#167	ne3
+ L=1e-06	W=1e-05
+ AD=4.8e-12	AS=4.8e-12	PD=2.096e-05	PS=2.096e-05
+ NRD=0.0173	NRS=0.0173
MMM14	net1	net6#10	GNDA#45	GNDA#167	ne3	L=1e-06
+ W=1e-05
+ AD=4.8e-12	AS=4.8e-12	PD=2.096e-05	PS=2.096e-05
+ NRD=0.0173	NRS=0.0173
MMM15	net7	net6#12	GNDA#48	GNDA#167	ne3	L=1e-06
+ W=1e-05
+ AD=4.8e-12	AS=4.8e-12	PD=2.096e-05	PS=2.096e-05
+ NRD=0.0173	NRS=0.0173
MMM8@3	net2#4	net6#6	GNDA#39	GNDA#167	ne3	L=1e-06
+ W=1e-05
+ AD=4.8e-12	AS=4.8e-12	PD=2.096e-05	PS=2.096e-05
+ NRD=0.0173	NRS=0.0173
MMM7@3	net6#39	net6#8	GNDA#42	GNDA#167	ne3	L=1e-06
+ W=1e-05
+ AD=4.8e-12	AS=4.8e-12	PD=2.096e-05	PS=2.096e-05
+ NRD=0.0173	NRS=0.0173
MMM7@1	net6#33	net6#2	GNDA#33	GNDA#167	ne3	L=1e-06
+ W=1e-05
+ AD=4.8e-12	AS=4.8e-12	PD=2.096e-05	PS=2.096e-05
+ NRD=0.0173	NRS=0.0173
MMM8@2	net2	net6#4	GNDA#36	GNDA#167	ne3	L=1e-06
+ W=1e-05
+ AD=4.8e-12	AS=4.8e-12	PD=2.096e-05	PS=2.096e-05
+ NRD=0.0173	NRS=0.0173
MMM26	GNDA#27	GNDA#2	GNDA#18	GNDA#167	ne3	L=1e-06
+ W=1e-05
+ AD=4.8e-12	AS=4.8e-12	PD=2.096e-05	PS=2.096e-05
+ NRD=0.0173	NRS=0.0173
MMM26@3	GNDA#30	GNDA#4	GNDA#23	GNDA#167	ne3	L=1e-06
+ W=1e-05
+ AD=4.8e-12	AS=4.8e-12	PD=2.096e-05	PS=2.096e-05
+ NRD=0.0173	NRS=0.0173
MMM13@1	OUT#55	net17#2	GNDA#430	GNDA#167	ne3	L=1e-06
+ W=1e-05
+ AD=2.7e-12	AS=4.8e-12	PD=1.054e-05	PS=2.096e-05
+ NRD=0.0173	NRS=0.0173
MMM13@2	OUT#55	net17#4	GNDA#143	GNDA#167	ne3	L=1e-06
+ W=1e-05
+ AD=2.7e-12	AS=2.7e-12	PD=1.054e-05	PS=1.054e-05
+ NRD=0.0173	NRS=0.0173
MMM13	OUT#60	net17#6	GNDA#143	GNDA#167	ne3	L=1e-06
+ W=1e-05
+ AD=2.7e-12	AS=2.7e-12	PD=1.054e-05	PS=1.054e-05
+ NRD=0.0173	NRS=0.0173
MMM13@3	OUT#60	net17#8	GNDA#152	GNDA#167	ne3	L=1e-06
+ W=1e-05
+ AD=2.7e-12	AS=4.8e-12	PD=1.054e-05	PS=2.096e-05
+ NRD=0.0173	NRS=0.0173
MMM11@1	net3#31	BIAS#10	net2#7	GNDA#167	ne3	L=1e-06
+ W=1e-05
+ AD=2.7e-12	AS=4.8e-12	PD=1.054e-05	PS=2.096e-05
+ NRD=0.0173	NRS=0.0173
MMM11@2	net3#31	BIAS#12	net2#13	GNDA#167	ne3
+ L=1e-06	W=1e-05
+ AD=2.7e-12	AS=2.7e-12	PD=1.054e-05	PS=1.054e-05
+ NRD=0.0173	NRS=0.0173
MMM11	net3#38	BIAS#14	net2#13	GNDA#167	ne3
+ L=1e-06	W=1e-05
+ AD=2.7e-12	AS=2.7e-12	PD=1.054e-05	PS=1.054e-05
+ NRD=0.0173	NRS=0.0173
MMM11@3	net3#38	BIAS#16	net2#19	GNDA#167	ne3
+ L=1e-06	W=1e-05
+ AD=2.7e-12	AS=4.8e-12	PD=1.054e-05	PS=2.096e-05
+ NRD=0.0173	NRS=0.0173
MMM9@2	BIAS#19	BIAS#2	net6#21	GNDA#167	ne3	L=1e-06
+ W=1e-05
+ AD=2.7e-12	AS=4.8e-12	PD=1.054e-05	PS=2.096e-05
+ NRD=0.0173	NRS=0.0173
MMM9	BIAS#19	BIAS#4	net6#24	GNDA#167	ne3	L=1e-06
+ W=1e-05
+ AD=2.7e-12	AS=2.7e-12	PD=1.054e-05	PS=1.054e-05
+ NRD=0.0173	NRS=0.0173
MMM9@3	BIAS#26	BIAS#6	net6#24	GNDA#167	ne3	L=1e-06
+ W=1e-05
+ AD=2.7e-12	AS=2.7e-12	PD=1.054e-05	PS=1.054e-05
+ NRD=0.0173	NRS=0.0173
MMM9@1	BIAS#26	BIAS#8	net6#30	GNDA#167	ne3	L=1e-06
+ W=1e-05
+ AD=2.7e-12	AS=4.8e-12	PD=1.054e-05	PS=2.096e-05
+ NRD=0.0173	NRS=0.0173
MMM27@2	VDD3A#105	VDD3A#6	VDD3A#99	VDD3A	pe3	L=1e-06
+ W=1e-05
+ AD=4.8e-12	AS=4.8e-12	PD=2.096e-05	PS=2.096e-05
+ NRD=0.0173	NRS=0.0173
MMM27	VDD3A#110	VDD3A#8	VDD3A#102	VDD3A	pe3	L=1e-06
+ W=1e-05
+ AD=4.8e-12	AS=4.8e-12	PD=2.096e-05	PS=2.096e-05
+ NRD=0.0173	NRS=0.0173
MMM12	OUT#49	net16#46	VDD3A#93	VDD3A	pe3	L=1e-06
+ W=1e-05
+ AD=4.8e-12	AS=4.8e-12	PD=2.096e-05	PS=2.096e-05
+ NRD=0.0173	NRS=0.0173
MMM12@4	OUT#52	net16#48	VDD3A#96	VDD3A	pe3	L=1e-06
+ W=1e-05
+ AD=4.8e-12	AS=4.8e-12	PD=2.096e-05	PS=2.096e-05
+ NRD=0.0173	NRS=0.0173
MMM12@5	OUT#43	net16#42	VDD3A#87	VDD3A	pe3	L=1e-06
+ W=1e-05
+ AD=4.8e-12	AS=4.8e-12	PD=2.096e-05	PS=2.096e-05
+ NRD=0.0173	NRS=0.0173
MMM12@8	OUT#46	net16#44	VDD3A#90	VDD3A	pe3	L=1e-06
+ W=1e-05
+ AD=4.8e-12	AS=4.8e-12	PD=2.096e-05	PS=2.096e-05
+ NRD=0.0173	NRS=0.0173
MMM10@3	net14#19	net16#38	VDD3A#81	VDD3A	pe3	L=1e-06
+ W=1e-05
+ AD=4.8e-12	AS=4.8e-12	PD=2.096e-05	PS=2.096e-05
+ NRD=0.0173	NRS=0.0173
MMM0@3	net16#97	net16#40	VDD3A#84	VDD3A	pe3	L=1e-06
+ W=1e-05
+ AD=4.8e-12	AS=4.8e-12	PD=2.096e-05	PS=2.096e-05
+ NRD=0.0173	NRS=0.0173
MMM12@1	OUT#37	net16#34	VDD3A#75	VDD3A	pe3	L=1e-06
+ W=1e-05
+ AD=4.8e-12	AS=4.8e-12	PD=2.096e-05	PS=2.096e-05
+ NRD=0.0173	NRS=0.0173
MMM12@7	OUT#40	net16#36	VDD3A#78	VDD3A	pe3	L=1e-06
+ W=1e-05
+ AD=4.8e-12	AS=4.8e-12	PD=2.096e-05	PS=2.096e-05
+ NRD=0.0173	NRS=0.0173
MMM12@2	OUT#31	net16#30	VDD3A#69	VDD3A	pe3	L=1e-06
+ W=1e-05
+ AD=4.8e-12	AS=4.8e-12	PD=2.096e-05	PS=2.096e-05
+ NRD=0.0173	NRS=0.0173
MMM12@10	OUT#34	net16#32	VDD3A#72	VDD3A	pe3	L=1e-06
+ W=1e-05
+ AD=4.8e-12	AS=4.8e-12	PD=2.096e-05	PS=2.096e-05
+ NRD=0.0173	NRS=0.0173
MMM0@1	net16#85	net16#26	VDD3A#63	VDD3A	pe3	L=1e-06
+ W=1e-05
+ AD=4.8e-12	AS=4.8e-12	PD=2.096e-05	PS=2.096e-05
+ NRD=0.0173	NRS=0.0173
MMM10@2	net14#13	net16#28	VDD3A#66	VDD3A	pe3	L=1e-06
+ W=1e-05
+ AD=4.8e-12	AS=4.8e-12	PD=2.096e-05	PS=2.096e-05
+ NRD=0.0173	NRS=0.0173
MMM10	net14#7	net16#22	VDD3A#57	VDD3A	pe3	L=1e-06
+ W=1e-05
+ AD=4.8e-12	AS=4.8e-12	PD=2.096e-05	PS=2.096e-05
+ NRD=0.0173	NRS=0.0173
MMM0	net16#79	net16#24	VDD3A#60	VDD3A	pe3	L=1e-06
+ W=1e-05
+ AD=4.8e-12	AS=4.8e-12	PD=2.096e-05	PS=2.096e-05
+ NRD=0.0173	NRS=0.0173
MMM12@11	OUT#25	net16#18	VDD3A#51	VDD3A	pe3	L=1e-06
+ W=1e-05
+ AD=4.8e-12	AS=4.8e-12	PD=2.096e-05	PS=2.096e-05
+ NRD=0.0173	NRS=0.0173
MMM12@9	OUT#28	net16#20	VDD3A#54	VDD3A	pe3	L=1e-06
+ W=1e-05
+ AD=4.8e-12	AS=4.8e-12	PD=2.096e-05	PS=2.096e-05
+ NRD=0.0173	NRS=0.0173
MMM12@3	OUT#19	net16#14	VDD3A#45	VDD3A	pe3	L=1e-06
+ W=1e-05
+ AD=4.8e-12	AS=4.8e-12	PD=2.096e-05	PS=2.096e-05
+ NRD=0.0173	NRS=0.0173
MMM12@13	OUT#22	net16#16	VDD3A#48	VDD3A	pe3	L=1e-06
+ W=1e-05
+ AD=4.8e-12	AS=4.8e-12	PD=2.096e-05	PS=2.096e-05
+ NRD=0.0173	NRS=0.0173
MMM0@2	net16#67	net16#10	VDD3A#39	VDD3A	pe3	L=1e-06
+ W=1e-05
+ AD=4.8e-12	AS=4.8e-12	PD=2.096e-05	PS=2.096e-05
+ NRD=0.0173	NRS=0.0173
MMM10@1	net14	net16#12	VDD3A#42	VDD3A	pe3	L=1e-06
+ W=1e-05
+ AD=4.8e-12	AS=4.8e-12	PD=2.096e-05	PS=2.096e-05
+ NRD=0.0173	NRS=0.0173
MMM12@14	OUT#13	net16#6	VDD3A#33	VDD3A	pe3	L=1e-06
+ W=1e-05
+ AD=4.8e-12	AS=4.8e-12	PD=2.096e-05	PS=2.096e-05
+ NRD=0.0173	NRS=0.0173
MMM12@12	OUT#16	net16#8	VDD3A#36	VDD3A	pe3	L=1e-06
+ W=1e-05
+ AD=4.8e-12	AS=4.8e-12	PD=2.096e-05	PS=2.096e-05
+ NRD=0.0173	NRS=0.0173
MMM12@6	OUT#7	net16#2	VDD3A#27	VDD3A	pe3	L=1e-06
+ W=1e-05
+ AD=4.8e-12	AS=4.8e-12	PD=2.096e-05	PS=2.096e-05
+ NRD=0.0173	NRS=0.0173
MMM12@15	OUT#10	net16#4	VDD3A#30	VDD3A	pe3	L=1e-06
+ W=1e-05
+ AD=4.8e-12	AS=4.8e-12	PD=2.096e-05	PS=2.096e-05
+ NRD=0.0173	NRS=0.0173
MMM27@1	VDD3A#21	VDD3A#2	VDD3A#12	VDD3A	pe3	L=1e-06
+ W=1e-05
+ AD=4.8e-12	AS=4.8e-12	PD=2.096e-05	PS=2.096e-05
+ NRD=0.0173	NRS=0.0173
MMM27@3	VDD3A#24	VDD3A#4	VDD3A#17	VDD3A	pe3	L=1e-06
+ W=1e-05
+ AD=4.8e-12	AS=4.8e-12	PD=2.096e-05	PS=2.096e-05
+ NRD=0.0173	NRS=0.0173
MMM21	net1#4	net12#2	net20#5	VDD3A	pe3	L=5e-06
+ W=1e-05
+ AD=4.8e-12	AS=4.8e-12	PD=2.096e-05	PS=2.096e-05
+ NRD=0.0173	NRS=0.0173
MMM28@3	A#85	A#6	A#79	VDD3A	pe3	L=5e-06	W=1e-05
+ AD=4.8e-12	AS=4.8e-12	PD=2.096e-05	PS=2.096e-05
+ NRD=0.0173	NRS=0.0173
MMM28	A#90	A#8	A#82	VDD3A	pe3	L=5e-06	W=1e-05
+ AD=4.8e-12	AS=4.8e-12	PD=2.096e-05	PS=2.096e-05
+ NRD=0.0173	NRS=0.0173
MMM5@5	net17#55	net11#16	A#73	VDD3A	pe3	L=5e-06
+ W=1e-05
+ AD=4.8e-12	AS=4.8e-12	PD=2.096e-05	PS=2.096e-05
+ NRD=0.0173	NRS=0.0173
MMM3@6	net15#124	net23#16	A#76	VDD3A	pe3	L=5e-06
+ W=1e-05
+ AD=4.8e-12	AS=4.8e-12	PD=2.096e-05	PS=2.096e-05
+ NRD=0.0173	NRS=0.0173
MMM3@1	net15#111	net23#14	A#67	VDD3A	pe3	L=5e-06
+ W=1e-05
+ AD=4.8e-12	AS=4.8e-12	PD=2.096e-05	PS=2.096e-05
+ NRD=0.0173	NRS=0.0173
MMM5@6	net17#45	net11#14	A#70	VDD3A	pe3	L=5e-06
+ W=1e-05
+ AD=4.8e-12	AS=4.8e-12	PD=2.096e-05	PS=2.096e-05
+ NRD=0.0173	NRS=0.0173
MMM19	net12#5	net10#4	VDD3A#141	VDD3A	pe3	L=5e-06
+ W=1e-05
+ AD=4.8e-12	AS=4.8e-12	PD=2.096e-05	PS=2.096e-05
+ NRD=0.0173	NRS=0.0173
MMM5@1	net17#39	net11#12	A#61	VDD3A	pe3	L=5e-06
+ W=1e-05
+ AD=4.8e-12	AS=4.8e-12	PD=2.096e-05	PS=2.096e-05
+ NRD=0.0173	NRS=0.0173
MMM3@5	net15#98	net23#12	A#64	VDD3A	pe3	L=5e-06
+ W=1e-05
+ AD=4.8e-12	AS=4.8e-12	PD=2.096e-05	PS=2.096e-05
+ NRD=0.0173	NRS=0.0173
MMM18	net10#9	net10#2	VDD3A#138	VDD3A	pe3	L=5e-06
+ W=1e-05
+ AD=4.8e-12	AS=4.8e-12	PD=2.096e-05	PS=2.096e-05
+ NRD=0.0173	NRS=0.0173
MMM3@7	net15#85	net23#10	A#55	VDD3A	pe3	L=5e-06
+ W=1e-05
+ AD=4.8e-12	AS=4.8e-12	PD=2.096e-05	PS=2.096e-05
+ NRD=0.0173	NRS=0.0173
MMM5@7	net17#33	net11#10	A#58	VDD3A	pe3	L=5e-06
+ W=1e-05
+ AD=4.8e-12	AS=4.8e-12	PD=2.096e-05	PS=2.096e-05
+ NRD=0.0173	NRS=0.0173
MMM5@2	net17#27	net11#8	A#49	VDD3A	pe3	L=5e-06
+ W=1e-05
+ AD=4.8e-12	AS=4.8e-12	PD=2.096e-05	PS=2.096e-05
+ NRD=0.0173	NRS=0.0173
MMM3@2	net15#72	net23#8	A#52	VDD3A	pe3	L=5e-06
+ W=1e-05
+ AD=4.8e-12	AS=4.8e-12	PD=2.096e-05	PS=2.096e-05
+ NRD=0.0173	NRS=0.0173
MMM22	net11#31	net20#4	VDD3A#118	VDD3A	pe3	L=5e-06
+ W=1e-05
+ AD=4.8e-12	AS=4.8e-12	PD=2.096e-05	PS=2.096e-05
+ NRD=0.0173	NRS=0.0173
MMM3@4	net15#59	net23#6	A#43	VDD3A	pe3	L=5e-06
+ W=1e-05
+ AD=4.8e-12	AS=4.8e-12	PD=2.096e-05	PS=2.096e-05
+ NRD=0.0173	NRS=0.0173
MMM5@4	net17#21	net11#6	A#46	VDD3A	pe3	L=5e-06
+ W=1e-05
+ AD=4.8e-12	AS=4.8e-12	PD=2.096e-05	PS=2.096e-05
+ NRD=0.0173	NRS=0.0173
MMM20	net20#11	net20#2	VDD3A#115	VDD3A	pe3	L=5e-06
+ W=1e-05
+ AD=4.8e-12	AS=4.8e-12	PD=2.096e-05	PS=2.096e-05
+ NRD=0.0173	NRS=0.0173
MMM5@3	net17#15	net11#4	A#37	VDD3A	pe3	L=5e-06
+ W=1e-05
+ AD=4.8e-12	AS=4.8e-12	PD=2.096e-05	PS=2.096e-05
+ NRD=0.0173	NRS=0.0173
MMM3	net15#46	net23#4	A#40	VDD3A	pe3	L=5e-06
+ W=1e-05
+ AD=4.8e-12	AS=4.8e-12	PD=2.096e-05	PS=2.096e-05
+ NRD=0.0173	NRS=0.0173
MMM3@3	net15#33	net23#2	A#31	VDD3A	pe3	L=5e-06
+ W=1e-05
+ AD=4.8e-12	AS=4.8e-12	PD=2.096e-05	PS=2.096e-05
+ NRD=0.0173	NRS=0.0173
MMM5	net17#9	net11#2	A#34	VDD3A	pe3	L=5e-06
+ W=1e-05
+ AD=4.8e-12	AS=4.8e-12	PD=2.096e-05	PS=2.096e-05
+ NRD=0.0173	NRS=0.0173
MMM28@2	A#25	A#2	A#16	VDD3A	pe3	L=5e-06	W=1e-05
+ AD=4.8e-12	AS=4.8e-12	PD=2.096e-05	PS=2.096e-05
+ NRD=0.0173	NRS=0.0173
MMM28@1	A#28	A#4	A#21	VDD3A	pe3	L=5e-06	W=1e-05
+ AD=4.8e-12	AS=4.8e-12	PD=2.096e-05	PS=2.096e-05
+ NRD=0.0173	NRS=0.0173
MMM1@1	A#9	net3#10	net14#4	VDD3A	pe3	L=1e-06
+ W=1e-05
+ AD=2.7e-12	AS=4.8e-12	PD=1.054e-05	PS=2.096e-05
+ NRD=0.0173	NRS=0.0173
MMM1@2	A#9	net3#12	net14#10	VDD3A	pe3	L=1e-06
+ W=1e-05
+ AD=2.7e-12	AS=2.7e-12	PD=1.054e-05	PS=1.054e-05
+ NRD=0.0173	NRS=0.0173
MMM1	A#12	net3#14	net14#10	VDD3A	pe3	L=1e-06
+ W=1e-05
+ AD=2.7e-12	AS=2.7e-12	PD=1.054e-05	PS=1.054e-05
+ NRD=0.0173	NRS=0.0173
MMM1@3	A#12	net3#16	net14#16	VDD3A	pe3	L=1e-06
+ W=1e-05
+ AD=2.7e-12	AS=4.8e-12	PD=1.054e-05	PS=2.096e-05
+ NRD=0.0173	NRS=0.0173
MMM6@1	net3#19	net3#2	net16#49	VDD3A	pe3	L=1e-06
+ W=1e-05
+ AD=2.7e-12	AS=4.8e-12	PD=1.054e-05	PS=2.096e-05
+ NRD=0.0173	NRS=0.0173
MMM6@3	net3#19	net3#4	net16#52	VDD3A	pe3	L=1e-06
+ W=1e-05
+ AD=2.7e-12	AS=2.7e-12	PD=1.054e-05	PS=1.054e-05
+ NRD=0.0173	NRS=0.0173
MMM6	net3#26	net3#6	net16#52	VDD3A	pe3	L=1e-06
+ W=1e-05
+ AD=2.7e-12	AS=2.7e-12	PD=1.054e-05	PS=1.054e-05
+ NRD=0.0173	NRS=0.0173
MMM6@2	net3#26	net3#8	net16#58	VDD3A	pe3	L=1e-06
+ W=1e-05
+ AD=2.7e-12	AS=4.8e-12	PD=1.054e-05	PS=2.096e-05
+ NRD=0.0173	NRS=0.0173
*
*
*       BIPOLAR TRANSISTOR CARDS
*
*
QQQ5	GNDA#167	GNDA	net9#47	qpvc3
QQQ5@1	GNDA#167	GNDA	net9#41	qpvc3
QQQ5@2	GNDA#167	GNDA	net9#35	qpvc3
QQQ5@3	GNDA#167	GNDA	net9#29	qpvc3
QQQ5@4	GNDA#167	GNDA	net9#23	qpvc3
QQQ5@5	GNDA#167	GNDA	net9#17	qpvc3
QQQ5@6	GNDA#167	GNDA	net9#11	qpvc3
QQQ5@7	GNDA#167	GNDA	net9#5	qpvc3
QQQ5@8	GNDA#167	GNDA	net9#89	qpvc3
QQQ5@9	GNDA#167	GNDA	net9#83	qpvc3
QQQ5@10	GNDA#167	GNDA	net9#77	qpvc3
QQQ6	GNDA#167	GNDA	net11#56	qpvc3
QQQ5@11	GNDA#167	GNDA	net9#71	qpvc3
QQQ5@12	GNDA#167	GNDA	net9#65	qpvc3
QQQ5@13	GNDA#167	GNDA	net9#59	qpvc3
QQQ5@14	GNDA#167	GNDA	net9#53	qpvc3
QQQ5@15	GNDA#167	GNDA	net9#130	qpvc3
QQQ5@16	GNDA#167	GNDA	net9#125	qpvc3
QQQ5@17	GNDA#167	GNDA	net9#120	qpvc3
QQQ5@18	GNDA#167	GNDA	net9#115	qpvc3
QQQ5@19	GNDA#167	GNDA	net9#110	qpvc3
QQQ5@20	GNDA#167	GNDA	net9#105	qpvc3
QQQ5@21	GNDA#167	GNDA	net9#100	qpvc3
QQQ5@22	GNDA#167	GNDA	net9#95	qpvc3
QQQ5@23	GNDA#167	GNDA	net9#177	qpvc3
QQQ5@24	GNDA#167	GNDA	net9#171	qpvc3
QQQ5@25	GNDA#167	GNDA	net9#165	qpvc3
QQQ5@26	GNDA#167	GNDA	net9#159	qpvc3
QQQ5@27	GNDA#167	GNDA	net9#153	qpvc3
QQQ5@28	GNDA#167	GNDA	net9#147	qpvc3
QQQ5@29	GNDA#167	GNDA	net9#141	qpvc3
QQQ5@30	GNDA#167	GNDA	net9#135	qpvc3
*
*
*       CANONICAL RESISTOR AND CAP/DIODE CARDS
*
RRR6	net11#17	net8#3	rpp1k1_3 	L=0.00082283	W=4e-06
+ $SUB=GNDA#167 
RRR8	net23#17	net5#3	rpp1k1_3 	L=0.00082283	W=4e-06
+ $SUB=GNDA#167 
RRR10	net8	OUT#3	rpp1k1_3 	L=0.00082283	W=4e-06
+ $SUB=GNDA#167 
RRR11	net5	OUT#5	rpp1k1_3 	L=0.00082283	W=4e-06
+ $SUB=GNDA#167 
RRR7	net9#2	net23#20	rpp1k1_3 	L=0.0005215	W=8e-06
+ $SUB=GNDA#167 
*
*       PARASITIC RESISTOR AND CAP/DIODE CARDS
*
Rb13	net17#97	net17#110	0.002511	$METTP	$W=2.988e-05
+ $X=150.915 $Y=38.985
Rb26	net17#110	net17#123	0.002511	$METTP	$W=2.988e-05
+ $X=136.395 $Y=35.3555
Rb39	net17#123	net17#136	0.002511	$METTP	$W=2.988e-05
+ $X=150.915 $Y=34.145
Rb52	net17#136	net17#149	0.002511	$METTP	$W=2.988e-05
+ $X=136.395 $Y=30.5155
Rb65	net17#149	net17#162	0.002511	$METTP	$W=2.988e-05
+ $X=150.915 $Y=29.305
Rb78	net17#162	net17#175	0.002511	$METTP	$W=2.988e-05
+ $X=136.395 $Y=25.6755
Rb91	net17#175	net17#188	0.002511	$METTP	$W=2.988e-05
+ $X=150.915 $Y=24.465
Rb104	net17#188	net17#201	0.002511	$METTP	$W=2.988e-05
+ $X=136.395 $Y=20.8355
Rb117	net17#201	net17#214	0.002511	$METTP	$W=2.988e-05
+ $X=150.915 $Y=19.625
Rb130	net17#214	net17#227	0.002511	$METTP	$W=2.988e-05
+ $X=136.395 $Y=15.9955
Rb143	net17#227	net17#240	0.002511	$METTP	$W=2.988e-05
+ $X=150.915 $Y=14.785
Rb156	net17#240	net17#253	0.001085	$METTP	$W=2.988e-05
+ $X=136.395 $Y=11.9465
Rb157	net17#253	net17#95	0.521810	$METTP	$W=8.8e-07
+ $X=119.595 $Y=11.315
Rb158	net17#253	net17#255	0.001417	$METTP	$W=2.988e-05
+ $X=136.395 $Y=10.524
Rb170	net17#255	net17#96	2.000000	$METTP	$W=2.988e-05
+ $X=123.085 $Y=9.945
Rb171	net17#96	net17#97	2.000000	$METTP	$W=2.988e-05
+ $X=150.915 $Y=38.985
Rb172	net17#96	net17#97	2.000000	$METTP	$W=2.988e-05
+ $X=148.495 $Y=38.985
Rb173	net17#96	net17#97	2.000000	$METTP	$W=2.988e-05
+ $X=146.075 $Y=38.985
Rb174	net17#96	net17#97	2.000000	$METTP	$W=2.988e-05
+ $X=143.655 $Y=38.985
Rb175	net17#96	net17#97	2.000000	$METTP	$W=2.988e-05
+ $X=141.235 $Y=38.985
Rb176	net17#96	net17#97	2.000000	$METTP	$W=2.988e-05
+ $X=138.815 $Y=38.985
Rb177	net17#96	net17#97	2.000000	$METTP	$W=2.988e-05
+ $X=136.395 $Y=38.985
Rb178	net17#96	net17#97	2.000000	$METTP	$W=2.988e-05
+ $X=133.975 $Y=38.985
Rb179	net17#96	net17#97	2.000000	$METTP	$W=2.988e-05
+ $X=131.555 $Y=38.985
Rb180	net17#96	net17#97	2.000000	$METTP	$W=2.988e-05
+ $X=129.135 $Y=38.985
Rb181	net17#96	net17#97	2.000000	$METTP	$W=2.988e-05
+ $X=126.715 $Y=38.985
Rb182	net17#96	net17#97	2.000000	$METTP	$W=2.988e-05
+ $X=124.295 $Y=38.985
Rb183	net17#96	net17#97	2.000000	$METTP	$W=2.988e-05
+ $X=121.875 $Y=38.985
Rb184	net17#96	net17#110	2.000000	$METTP	$W=2.988e-05
+ $X=150.915 $Y=36.565
Rb185	net17#96	net17#110	2.000000	$METTP	$W=2.988e-05
+ $X=148.495 $Y=36.565
Rb186	net17#96	net17#110	2.000000	$METTP	$W=2.988e-05
+ $X=146.075 $Y=36.565
Rb187	net17#96	net17#110	2.000000	$METTP	$W=2.988e-05
+ $X=143.655 $Y=36.565
Rb188	net17#96	net17#110	2.000000	$METTP	$W=2.988e-05
+ $X=141.235 $Y=36.565
Rb189	net17#96	net17#110	2.000000	$METTP	$W=2.988e-05
+ $X=138.815 $Y=36.565
Rb190	net17#96	net17#110	2.000000	$METTP	$W=2.988e-05
+ $X=136.395 $Y=36.565
Rb191	net17#96	net17#110	2.000000	$METTP	$W=2.988e-05
+ $X=133.975 $Y=36.565
Rb192	net17#96	net17#110	2.000000	$METTP	$W=2.988e-05
+ $X=131.555 $Y=36.565
Rb193	net17#96	net17#110	2.000000	$METTP	$W=2.988e-05
+ $X=129.135 $Y=36.565
Rb194	net17#96	net17#110	2.000000	$METTP	$W=2.988e-05
+ $X=126.715 $Y=36.565
Rb195	net17#96	net17#110	2.000000	$METTP	$W=2.988e-05
+ $X=124.295 $Y=36.565
Rb196	net17#96	net17#110	2.000000	$METTP	$W=2.988e-05
+ $X=121.875 $Y=36.565
Rb197	net17#96	net17#123	2.000000	$METTP	$W=2.988e-05
+ $X=150.915 $Y=34.145
Rb198	net17#96	net17#123	2.000000	$METTP	$W=2.988e-05
+ $X=148.495 $Y=34.145
Rb199	net17#96	net17#123	2.000000	$METTP	$W=2.988e-05
+ $X=146.075 $Y=34.145
Rb200	net17#96	net17#123	2.000000	$METTP	$W=2.988e-05
+ $X=143.655 $Y=34.145
Rb201	net17#96	net17#123	2.000000	$METTP	$W=2.988e-05
+ $X=141.235 $Y=34.145
Rb202	net17#96	net17#123	2.000000	$METTP	$W=2.988e-05
+ $X=138.815 $Y=34.145
Rb203	net17#96	net17#123	2.000000	$METTP	$W=2.988e-05
+ $X=136.395 $Y=34.145
Rb204	net17#96	net17#123	2.000000	$METTP	$W=2.988e-05
+ $X=133.975 $Y=34.145
Rb205	net17#96	net17#123	2.000000	$METTP	$W=2.988e-05
+ $X=131.555 $Y=34.145
Rb206	net17#96	net17#123	2.000000	$METTP	$W=2.988e-05
+ $X=129.135 $Y=34.145
Rb207	net17#96	net17#123	2.000000	$METTP	$W=2.988e-05
+ $X=126.715 $Y=34.145
Rb208	net17#96	net17#123	2.000000	$METTP	$W=2.988e-05
+ $X=124.295 $Y=34.145
Rb209	net17#96	net17#123	2.000000	$METTP	$W=2.988e-05
+ $X=121.875 $Y=34.145
Rb210	net17#96	net17#136	2.000000	$METTP	$W=2.988e-05
+ $X=150.915 $Y=31.725
Rb211	net17#96	net17#136	2.000000	$METTP	$W=2.988e-05
+ $X=148.495 $Y=31.725
Rb212	net17#96	net17#136	2.000000	$METTP	$W=2.988e-05
+ $X=146.075 $Y=31.725
Rb213	net17#96	net17#136	2.000000	$METTP	$W=2.988e-05
+ $X=143.655 $Y=31.725
Rb214	net17#96	net17#136	2.000000	$METTP	$W=2.988e-05
+ $X=141.235 $Y=31.725
Rb215	net17#96	net17#136	2.000000	$METTP	$W=2.988e-05
+ $X=138.815 $Y=31.725
Rb216	net17#96	net17#136	2.000000	$METTP	$W=2.988e-05
+ $X=136.395 $Y=31.725
Rb217	net17#96	net17#136	2.000000	$METTP	$W=2.988e-05
+ $X=133.975 $Y=31.725
Rb218	net17#96	net17#136	2.000000	$METTP	$W=2.988e-05
+ $X=131.555 $Y=31.725
Rb219	net17#96	net17#136	2.000000	$METTP	$W=2.988e-05
+ $X=129.135 $Y=31.725
Rb220	net17#96	net17#136	2.000000	$METTP	$W=2.988e-05
+ $X=126.715 $Y=31.725
Rb221	net17#96	net17#136	2.000000	$METTP	$W=2.988e-05
+ $X=124.295 $Y=31.725
Rb222	net17#96	net17#136	2.000000	$METTP	$W=2.988e-05
+ $X=121.875 $Y=31.725
Rb223	net17#96	net17#149	2.000000	$METTP	$W=2.988e-05
+ $X=150.915 $Y=29.305
Rb224	net17#96	net17#149	2.000000	$METTP	$W=2.988e-05
+ $X=148.495 $Y=29.305
Rb225	net17#96	net17#149	2.000000	$METTP	$W=2.988e-05
+ $X=146.075 $Y=29.305
Rb226	net17#96	net17#149	2.000000	$METTP	$W=2.988e-05
+ $X=143.655 $Y=29.305
Rb227	net17#96	net17#149	2.000000	$METTP	$W=2.988e-05
+ $X=141.235 $Y=29.305
Rb228	net17#96	net17#149	2.000000	$METTP	$W=2.988e-05
+ $X=138.815 $Y=29.305
Rb229	net17#96	net17#149	2.000000	$METTP	$W=2.988e-05
+ $X=136.395 $Y=29.305
Rb230	net17#96	net17#149	2.000000	$METTP	$W=2.988e-05
+ $X=133.975 $Y=29.305
Rb231	net17#96	net17#149	2.000000	$METTP	$W=2.988e-05
+ $X=131.555 $Y=29.305
Rb232	net17#96	net17#149	2.000000	$METTP	$W=2.988e-05
+ $X=129.135 $Y=29.305
Rb233	net17#96	net17#149	2.000000	$METTP	$W=2.988e-05
+ $X=126.715 $Y=29.305
Rb234	net17#96	net17#149	2.000000	$METTP	$W=2.988e-05
+ $X=124.295 $Y=29.305
Rb235	net17#96	net17#149	2.000000	$METTP	$W=2.988e-05
+ $X=121.875 $Y=29.305
Rb236	net17#96	net17#162	2.000000	$METTP	$W=2.988e-05
+ $X=150.915 $Y=26.885
Rb237	net17#96	net17#162	2.000000	$METTP	$W=2.988e-05
+ $X=148.495 $Y=26.885
Rb238	net17#96	net17#162	2.000000	$METTP	$W=2.988e-05
+ $X=146.075 $Y=26.885
Rb239	net17#96	net17#162	2.000000	$METTP	$W=2.988e-05
+ $X=143.655 $Y=26.885
Rb240	net17#96	net17#162	2.000000	$METTP	$W=2.988e-05
+ $X=141.235 $Y=26.885
Rb241	net17#96	net17#162	2.000000	$METTP	$W=2.988e-05
+ $X=138.815 $Y=26.885
Rb242	net17#96	net17#162	2.000000	$METTP	$W=2.988e-05
+ $X=136.395 $Y=26.885
Rb243	net17#96	net17#162	2.000000	$METTP	$W=2.988e-05
+ $X=133.975 $Y=26.885
Rb244	net17#96	net17#162	2.000000	$METTP	$W=2.988e-05
+ $X=131.555 $Y=26.885
Rb245	net17#96	net17#162	2.000000	$METTP	$W=2.988e-05
+ $X=129.135 $Y=26.885
Rb246	net17#96	net17#162	2.000000	$METTP	$W=2.988e-05
+ $X=126.715 $Y=26.885
Rb247	net17#96	net17#162	2.000000	$METTP	$W=2.988e-05
+ $X=124.295 $Y=26.885
Rb248	net17#96	net17#162	2.000000	$METTP	$W=2.988e-05
+ $X=121.875 $Y=26.885
Rb249	net17#96	net17#175	2.000000	$METTP	$W=2.988e-05
+ $X=150.915 $Y=24.465
Rb250	net17#96	net17#175	2.000000	$METTP	$W=2.988e-05
+ $X=148.495 $Y=24.465
Rb251	net17#96	net17#175	2.000000	$METTP	$W=2.988e-05
+ $X=146.075 $Y=24.465
Rb252	net17#96	net17#175	2.000000	$METTP	$W=2.988e-05
+ $X=143.655 $Y=24.465
Rb253	net17#96	net17#175	2.000000	$METTP	$W=2.988e-05
+ $X=141.235 $Y=24.465
Rb254	net17#96	net17#175	2.000000	$METTP	$W=2.988e-05
+ $X=138.815 $Y=24.465
Rb255	net17#96	net17#175	2.000000	$METTP	$W=2.988e-05
+ $X=136.395 $Y=24.465
Rb256	net17#96	net17#175	2.000000	$METTP	$W=2.988e-05
+ $X=133.975 $Y=24.465
Rb257	net17#96	net17#175	2.000000	$METTP	$W=2.988e-05
+ $X=131.555 $Y=24.465
Rb258	net17#96	net17#175	2.000000	$METTP	$W=2.988e-05
+ $X=129.135 $Y=24.465
Rb259	net17#96	net17#175	2.000000	$METTP	$W=2.988e-05
+ $X=126.715 $Y=24.465
Rb260	net17#96	net17#175	2.000000	$METTP	$W=2.988e-05
+ $X=124.295 $Y=24.465
Rb261	net17#96	net17#175	2.000000	$METTP	$W=2.988e-05
+ $X=121.875 $Y=24.465
Rb262	net17#96	net17#188	2.000000	$METTP	$W=2.988e-05
+ $X=150.915 $Y=22.045
Rb263	net17#96	net17#188	2.000000	$METTP	$W=2.988e-05
+ $X=148.495 $Y=22.045
Rb264	net17#96	net17#188	2.000000	$METTP	$W=2.988e-05
+ $X=146.075 $Y=22.045
Rb265	net17#96	net17#188	2.000000	$METTP	$W=2.988e-05
+ $X=143.655 $Y=22.045
Rb266	net17#96	net17#188	2.000000	$METTP	$W=2.988e-05
+ $X=141.235 $Y=22.045
Rb267	net17#96	net17#188	2.000000	$METTP	$W=2.988e-05
+ $X=138.815 $Y=22.045
Rb268	net17#96	net17#188	2.000000	$METTP	$W=2.988e-05
+ $X=136.395 $Y=22.045
Rb269	net17#96	net17#188	2.000000	$METTP	$W=2.988e-05
+ $X=133.975 $Y=22.045
Rb270	net17#96	net17#188	2.000000	$METTP	$W=2.988e-05
+ $X=131.555 $Y=22.045
Rb271	net17#96	net17#188	2.000000	$METTP	$W=2.988e-05
+ $X=129.135 $Y=22.045
Rb272	net17#96	net17#188	2.000000	$METTP	$W=2.988e-05
+ $X=126.715 $Y=22.045
Rb273	net17#96	net17#188	2.000000	$METTP	$W=2.988e-05
+ $X=124.295 $Y=22.045
Rb274	net17#96	net17#188	2.000000	$METTP	$W=2.988e-05
+ $X=121.875 $Y=22.045
Rb275	net17#96	net17#201	2.000000	$METTP	$W=2.988e-05
+ $X=150.915 $Y=19.625
Rb276	net17#96	net17#201	2.000000	$METTP	$W=2.988e-05
+ $X=148.495 $Y=19.625
Rb277	net17#96	net17#201	2.000000	$METTP	$W=2.988e-05
+ $X=146.075 $Y=19.625
Rb278	net17#96	net17#201	2.000000	$METTP	$W=2.988e-05
+ $X=143.655 $Y=19.625
Rb279	net17#96	net17#201	2.000000	$METTP	$W=2.988e-05
+ $X=141.235 $Y=19.625
Rb280	net17#96	net17#201	2.000000	$METTP	$W=2.988e-05
+ $X=138.815 $Y=19.625
Rb281	net17#96	net17#201	2.000000	$METTP	$W=2.988e-05
+ $X=136.395 $Y=19.625
Rb282	net17#96	net17#201	2.000000	$METTP	$W=2.988e-05
+ $X=133.975 $Y=19.625
Rb283	net17#96	net17#201	2.000000	$METTP	$W=2.988e-05
+ $X=131.555 $Y=19.625
Rb284	net17#96	net17#201	2.000000	$METTP	$W=2.988e-05
+ $X=129.135 $Y=19.625
Rb285	net17#96	net17#201	2.000000	$METTP	$W=2.988e-05
+ $X=126.715 $Y=19.625
Rb286	net17#96	net17#201	2.000000	$METTP	$W=2.988e-05
+ $X=124.295 $Y=19.625
Rb287	net17#96	net17#201	2.000000	$METTP	$W=2.988e-05
+ $X=121.875 $Y=19.625
Rb288	net17#96	net17#214	2.000000	$METTP	$W=2.988e-05
+ $X=150.915 $Y=17.205
Rb289	net17#96	net17#214	2.000000	$METTP	$W=2.988e-05
+ $X=148.495 $Y=17.205
Rb290	net17#96	net17#214	2.000000	$METTP	$W=2.988e-05
+ $X=146.075 $Y=17.205
Rb291	net17#96	net17#214	2.000000	$METTP	$W=2.988e-05
+ $X=143.655 $Y=17.205
Rb292	net17#96	net17#214	2.000000	$METTP	$W=2.988e-05
+ $X=141.235 $Y=17.205
Rb293	net17#96	net17#214	2.000000	$METTP	$W=2.988e-05
+ $X=138.815 $Y=17.205
Rb294	net17#96	net17#214	2.000000	$METTP	$W=2.988e-05
+ $X=136.395 $Y=17.205
Rb295	net17#96	net17#214	2.000000	$METTP	$W=2.988e-05
+ $X=133.975 $Y=17.205
Rb296	net17#96	net17#214	2.000000	$METTP	$W=2.988e-05
+ $X=131.555 $Y=17.205
Rb297	net17#96	net17#214	2.000000	$METTP	$W=2.988e-05
+ $X=129.135 $Y=17.205
Rb298	net17#96	net17#214	2.000000	$METTP	$W=2.988e-05
+ $X=126.715 $Y=17.205
Rb299	net17#96	net17#214	2.000000	$METTP	$W=2.988e-05
+ $X=124.295 $Y=17.205
Rb300	net17#96	net17#214	2.000000	$METTP	$W=2.988e-05
+ $X=121.875 $Y=17.205
Rb301	net17#96	net17#227	2.000000	$METTP	$W=2.988e-05
+ $X=150.915 $Y=14.785
Rb302	net17#96	net17#227	2.000000	$METTP	$W=2.988e-05
+ $X=148.495 $Y=14.785
Rb303	net17#96	net17#227	2.000000	$METTP	$W=2.988e-05
+ $X=146.075 $Y=14.785
Rb304	net17#96	net17#227	2.000000	$METTP	$W=2.988e-05
+ $X=143.655 $Y=14.785
Rb305	net17#96	net17#227	2.000000	$METTP	$W=2.988e-05
+ $X=141.235 $Y=14.785
Rb306	net17#96	net17#227	2.000000	$METTP	$W=2.988e-05
+ $X=138.815 $Y=14.785
Rb307	net17#96	net17#227	2.000000	$METTP	$W=2.988e-05
+ $X=136.395 $Y=14.785
Rb308	net17#96	net17#227	2.000000	$METTP	$W=2.988e-05
+ $X=133.975 $Y=14.785
Rb309	net17#96	net17#227	2.000000	$METTP	$W=2.988e-05
+ $X=131.555 $Y=14.785
Rb310	net17#96	net17#227	2.000000	$METTP	$W=2.988e-05
+ $X=129.135 $Y=14.785
Rb311	net17#96	net17#227	2.000000	$METTP	$W=2.988e-05
+ $X=126.715 $Y=14.785
Rb312	net17#96	net17#227	2.000000	$METTP	$W=2.988e-05
+ $X=124.295 $Y=14.785
Rb313	net17#96	net17#227	2.000000	$METTP	$W=2.988e-05
+ $X=121.875 $Y=14.785
Rb314	net17#96	net17#240	2.000000	$METTP	$W=2.988e-05
+ $X=150.915 $Y=12.365
Rb315	net17#96	net17#240	2.000000	$METTP	$W=2.988e-05
+ $X=148.495 $Y=12.365
Rb316	net17#96	net17#240	2.000000	$METTP	$W=2.988e-05
+ $X=146.075 $Y=12.365
Rb317	net17#96	net17#240	2.000000	$METTP	$W=2.988e-05
+ $X=143.655 $Y=12.365
Rb318	net17#96	net17#240	2.000000	$METTP	$W=2.988e-05
+ $X=141.235 $Y=12.365
Rb319	net17#96	net17#240	2.000000	$METTP	$W=2.988e-05
+ $X=138.815 $Y=12.365
Rb320	net17#96	net17#240	2.000000	$METTP	$W=2.988e-05
+ $X=136.395 $Y=12.365
Rb321	net17#96	net17#240	2.000000	$METTP	$W=2.988e-05
+ $X=133.975 $Y=12.365
Rb322	net17#96	net17#240	2.000000	$METTP	$W=2.988e-05
+ $X=131.555 $Y=12.365
Rb323	net17#96	net17#240	2.000000	$METTP	$W=2.988e-05
+ $X=129.135 $Y=12.365
Rb324	net17#96	net17#240	2.000000	$METTP	$W=2.988e-05
+ $X=126.715 $Y=12.365
Rb325	net17#96	net17#240	2.000000	$METTP	$W=2.988e-05
+ $X=124.295 $Y=12.365
Rb326	net17#96	net17#240	2.000000	$METTP	$W=2.988e-05
+ $X=121.875 $Y=12.365
Rb327	net17#96	net17#255	2.000000	$METTP	$W=2.988e-05
+ $X=150.915 $Y=9.945
Rb328	net17#96	net17#255	2.000000	$METTP	$W=2.988e-05
+ $X=148.495 $Y=9.945
Rb329	net17#96	net17#255	2.000000	$METTP	$W=2.988e-05
+ $X=146.075 $Y=9.945
Rb330	net17#96	net17#255	2.000000	$METTP	$W=2.988e-05
+ $X=143.655 $Y=9.945
Rb331	net17#96	net17#255	2.000000	$METTP	$W=2.988e-05
+ $X=141.235 $Y=9.945
Rb332	net17#96	net17#255	2.000000	$METTP	$W=2.988e-05
+ $X=138.815 $Y=9.945
Rb333	net17#96	net17#255	2.000000	$METTP	$W=2.988e-05
+ $X=136.395 $Y=9.945
Rb334	net17#96	net17#255	2.000000	$METTP	$W=2.988e-05
+ $X=133.975 $Y=9.945
Rb335	net17#96	net17#255	2.000000	$METTP	$W=2.988e-05
+ $X=131.555 $Y=9.945
Rb336	net17#96	net17#255	2.000000	$METTP	$W=2.988e-05
+ $X=129.135 $Y=9.945
Rb337	net17#96	net17#255	2.000000	$METTP	$W=2.988e-05
+ $X=126.715 $Y=9.945
Rb338	net17#96	net17#255	2.000000	$METTP	$W=2.988e-05
+ $X=124.295 $Y=9.945
Rc1	net17#93	net17#95	0.802335	$MET4	$W=1.43e-06
+ $X=116.705 $Y=11.28
Rc2	OUT#100	OUT#97	3.983508	$MET4	$W=9.6e-07
+ $X=136.395 $Y=24.465
Rd1	net6#68	net6#62	1.301329	$MET3	$W=1.46e-06
+ $X=7.24 $Y=35.5005
Rd2	net6#62	net6#65	1.218205	$MET3	$W=1.46e-06
+ $X=7.24 $Y=21.0305
Rd3	net16#109	net16#128	1.965096	$MET3	$W=1.46e-06
+ $X=5.84 $Y=86.6145
Rd4	net16#128	net16#125	0.863671	$MET3	$W=1.46e-06
+ $X=5.84 $Y=109.4395
Rd5	net16#125	net16#112	1.356575	$MET3	$W=1.46e-06
+ $X=5.84 $Y=125.8895
Rd6	BIAS#48	BIAS	0.367846	$MET3	$W=9.4e-07
+ $X=11.905 $Y=54.14
Rd7	net2#24	net2#28	1.725704	$MET3	$W=1.46e-06
+ $X=14.958 $Y=48.315
Rd8	net2#28	net2#31	2.019534	$MET3	$W=1.46e-06
+ $X=9.02 $Y=26.8955
Rd9	GNDA#1257	GNDA#1268	1.305286	$MET3	$W=1.96e-06
+ $X=29.65 $Y=27.7855
Rd10	GNDA#1268	GNDA#1255	0.554520	$MET3	$W=1.96e-06
+ $X=27.9455 $Y=7.845
Rd11	GNDA#1255	GNDA#1278	0.554520	$MET3	$W=1.96e-06
+ $X=14.135 $Y=7.845
Rd12	GNDA#1278	GNDA#1267	1.305286	$MET3	$W=1.96e-06
+ $X=11.05 $Y=27.7845
Rd13	A#122	A#108	1.786755	$MET3	$W=1.96e-06
+ $X=40.315 $Y=71.9555
Rd14	net15#151	net15#146	0.556246	$MET3	$W=1.96e-06
+ $X=40.42 $Y=48.562
Rd15	net15#151	net15#160	0.599929	$MET3	$W=1.96e-06
+ $X=40.42 $Y=34.0855
Rd16	net15#160	net15#165	0.909990	$MET3	$W=1.96e-06
+ $X=40.42 $Y=19.5755
Rd17	net15#146	net15#141	1.613367	$MET3	$W=1.96e-06
+ $X=38.035 $Y=72.8445
Rd18	VDD3A#255	VDD3A#306	0.966645	$MET3	$W=1.96e-06
+ $X=39.7905 $Y=139.325
Rd19	VDD3A#306	VDD3A#272	0.934553	$MET3	$W=1.96e-06
+ $X=14.4975 $Y=139.325
Rd20	VDD3A#272	VDD3A#290	1.387592	$MET3	$W=1.96e-06
+ $X=7.87 $Y=117.6305
Rd21	VDD3A#255	VDD3A#273	1.387592	$MET3	$W=1.96e-06
+ $X=43.57 $Y=117.6305
Rd22	net14#26	net14#29	2.220247	$MET3	$W=1.46e-06
+ $X=45.6 $Y=119.4105
Rd23	net14#29	net14#24	3.263738	$MET3	$W=1.46e-06
+ $X=24.083 $Y=96.415
Rd24	net1#6	net1#9	4.998560	$MET3	$W=1.46e-06
+ $X=31.68 $Y=86.6495
Rd25	net7#12	net7#10	7.648691	$MET3	$W=1.46e-06
+ $X=33.46 $Y=74.898
Rd26	OUT#89	OUT#76	2.125480	$MET3	$W=1.96e-06
+ $X=71.7255 $Y=99.35
Rd27	OUT#76	OUT#67	2.218260	$MET3	$W=1.46e-06
+ $X=47.38 $Y=116.21
Rd28	A#109	A#95	1.786755	$MET3	$W=1.96e-06
+ $X=107.055 $Y=71.9555
Rd29	GNDA#1284	GNDA#1298	1.308306	$MET3	$W=1.96e-06
+ $X=108.02 $Y=26.3705
Rd30	GNDA#1298	GNDA#1319	1.406649	$MET3	$W=1.96e-06
+ $X=95.358 $Y=8.065
Rd31	GNDA#1319	GNDA#1311	1.406649	$MET3	$W=1.96e-06
+ $X=57.465 $Y=8.065
Rd32	GNDA#1319	GNDA#1279	0.079409	$MET3	$W=8.22e-06
+ $X=75.36 $Y=8.065
Rd33	GNDA#1311	GNDA#1297	1.308306	$MET3	$W=1.96e-06
+ $X=42.7 $Y=26.3695
Rd34	net11#73	net11#71	6.170289	$MET3	$W=1.46e-06
+ $X=90.8055 $Y=102.04
Rd35	net17#80	net17#65	1.613367	$MET3	$W=1.96e-06
+ $X=109.335 $Y=71.0655
Rd36	net17#65	net17#70	0.520413	$MET3	$W=1.96e-06
+ $X=110.3 $Y=47.588
Rd37	net17#70	net17#75	1.133914	$MET3	$W=1.96e-06
+ $X=110.3 $Y=25.7755
Rd38	net17#75	net17#93	0.447774	$MET3	$W=9.6e-07
+ $X=113.5575 $Y=11.28
Rd39	OUT#97	OUT#90	0.281250	$MET3	$W=3.9e-06
+ $X=118.685 $Y=83.76
Rd40	OUT	OUT#92	0.346197	$MET3	$W=9.4e-07
+ $X=118.8 $Y=136.695
Rd42	net11#88	net11#83	7.245571	$MET3	$W=1.46e-06
+ $X=209.7175 $Y=98.505
Rd67	VDD3A#297	VDD3A#306	0.056250	$MET3	$W=5.408e-06
+ $X=25.295 $Y=139.315
Rd96	net11#74	net11#88	0.281250	$MET3	$W=1.0816e-06
+ $X=208.725 $Y=98.25
Re1	net16#60	net16#54	1.656110	$MET2	$W=1.46e-06
+ $X=13.9855 $Y=74.485
Re2	net16#54	net16#51	0.156110	$MET2	$W=1.46e-06
+ $X=11.1105 $Y=74.485
Re3	net16#51	net16#109	0.005575	$MET2	$W=1.46e-06
+ $X=9.255 $Y=74.485
Re4	GNDA#1255	GNDA#197	0.140625	$MET2	$W=8.06e-06
+ $X=20.35 $Y=6.575
Re5	net2#21	net2#15	1.656110	$MET2	$W=1.46e-06
+ $X=27.0805 $Y=54.255
Re6	net2#15	net2#24	0.134568	$MET2	$W=1.46e-06
+ $X=24.4255 $Y=54.255
Re7	net2#24	net2#9	1.521541	$MET2	$W=1.46e-06
+ $X=22.885 $Y=54.255
Re8	BIAS#37	BIAS#35	4.747739	$MET2	$W=4.6e-07
+ $X=27.0805 $Y=66.505
Re9	BIAS#35	BIAS#33	0.247739	$MET2	$W=4.6e-07
+ $X=25.5405 $Y=66.505
Re10	BIAS#33	BIAS#31	0.247739	$MET2	$W=4.6e-07
+ $X=24.0005 $Y=66.505
Re11	BIAS#31	BIAS#29	1.249152	$MET2	$W=4.6e-07
+ $X=19.348 $Y=66.505
Re12	BIAS#29	BIAS#24	0.247739	$MET2	$W=4.6e-07
+ $X=14.6955 $Y=66.505
Re13	BIAS#24	BIAS#22	0.247739	$MET2	$W=4.6e-07
+ $X=13.1555 $Y=66.505
Re14	BIAS#22	BIAS#17	0.247739	$MET2	$W=4.6e-07
+ $X=11.6155 $Y=66.505
Re15	BIAS#17	BIAS#21	2.589168	$MET2	$W=4.6e-07
+ $X=8.485 $Y=59.8855
Re16	BIAS#21	BIAS#48	0.014699	$MET2	$W=1.46e-06
+ $X=11.89 $Y=54.14
Re17	BIAS#48	BIAS#28	1.641411	$MET2	$W=1.46e-06
+ $X=13.1545 $Y=54.115
Re18	net14#18	net14#12	1.656110	$MET2	$W=1.46e-06
+ $X=28.0105 $Y=76.265
Re19	net14#12	net14#24	0.004055	$MET2	$W=1.46e-06
+ $X=26.17 $Y=76.265
Re20	net14#24	net14#6	1.652055	$MET2	$W=1.46e-06
+ $X=24.4105 $Y=76.265
Re21	net3#44	net3#42	2.497739	$MET2	$W=4.6e-07
+ $X=27.7905 $Y=89.745
Re22	net3#42	net3#37	0.247739	$MET2	$W=4.6e-07
+ $X=26.2505 $Y=89.745
Re23	net3#37	net3#35	0.247739	$MET2	$W=4.6e-07
+ $X=24.7105 $Y=89.745
Re24	net3#35	net3#29	1.477587	$MET2	$W=4.6e-07
+ $X=19.218 $Y=89.745
Re25	net3#29	net3#24	0.247739	$MET2	$W=4.6e-07
+ $X=13.9855 $Y=89.745
Re26	net3#24	net3#22	0.247739	$MET2	$W=4.6e-07
+ $X=12.4455 $Y=89.745
Re27	net3#22	net3#17	0.247739	$MET2	$W=4.6e-07
+ $X=10.9055 $Y=89.745
Re28	net3#17	net3#21	3.104546	$MET2	$W=4.6e-07
+ $X=6.475 $Y=82.8705
Re29	net3#21	net3#28	0.156110	$MET2	$W=1.46e-06
+ $X=12.4445 $Y=76.265
Re30	net3#28	net3#40	2.050649	$MET2	$W=1.46e-06
+ $X=30.235 $Y=69.158
Re31	net3#40	net3#33	1.656110	$MET2	$W=1.46e-06
+ $X=25.5405 $Y=52.475
Re32	net1#6	net1#3	2.035233	$MET2	$W=1.46e-06
+ $X=26.1405 $Y=45.445
Re33	net2#18	net2#6	1.840603	$MET2	$W=1.46e-06
+ $X=22.2405 $Y=41.885
Re34	net2#6	net2#28	0.999753	$MET2	$W=1.46e-06
+ $X=14.2105 $Y=41.885
Re35	GNDA#1257	GNDA#73	0.091740	$MET2	$W=1.46e-06
+ $X=28.3555 $Y=40.105
Re36	GNDA#73	GNDA#65	0.078055	$MET2	$W=1.46e-06
+ $X=27.0705 $Y=40.105
Re37	GNDA#65	GNDA#59	0.113534	$MET2	$W=1.46e-06
+ $X=25.1805 $Y=40.105
Re38	GNDA#59	GNDA#53	0.113534	$MET2	$W=1.46e-06
+ $X=22.9405 $Y=40.105
Re39	GNDA#53	GNDA#47	0.113534	$MET2	$W=1.46e-06
+ $X=20.7005 $Y=40.105
Re40	GNDA#47	GNDA#41	0.113534	$MET2	$W=1.46e-06
+ $X=18.4605 $Y=40.105
Re41	GNDA#41	GNDA#35	0.113534	$MET2	$W=1.46e-06
+ $X=16.2205 $Y=40.105
Re42	GNDA#35	GNDA#29	0.035479	$MET2	$W=1.46e-06
+ $X=15.1 $Y=40.105
Re43	GNDA#29	GNDA#21	0.078055	$MET2	$W=1.46e-06
+ $X=13.6305 $Y=40.105
Re44	GNDA#21	GNDA#1267	0.091740	$MET2	$W=1.46e-06
+ $X=12.3455 $Y=40.105
Re45	net6#52	net6#58	4.860348	$MET2	$W=4.6e-07
+ $X=23.7105 $Y=27.855
Re46	net6#58	net6#59	0.360348	$MET2	$W=4.6e-07
+ $X=21.4705 $Y=27.855
Re47	net6#59	net6#60	0.360348	$MET2	$W=4.6e-07
+ $X=19.2305 $Y=27.855
Re48	net6#60	net6#61	0.360348	$MET2	$W=4.6e-07
+ $X=16.9905 $Y=27.855
Re49	net6#61	net6#62	2.888304	$MET2	$W=4.6e-07
+ $X=11.8155 $Y=27.855
Re50	GNDA#1268	GNDA#78	0.466740	$MET2	$W=1.46e-06
+ $X=28.3555 $Y=15.465
Re51	GNDA#78	GNDA#68	0.078055	$MET2	$W=1.46e-06
+ $X=27.0705 $Y=15.465
Re52	GNDA#68	GNDA#62	0.113534	$MET2	$W=1.46e-06
+ $X=25.1805 $Y=15.465
Re53	GNDA#62	GNDA#56	0.113534	$MET2	$W=1.46e-06
+ $X=22.9405 $Y=15.465
Re54	GNDA#56	GNDA#50	0.113534	$MET2	$W=1.46e-06
+ $X=20.7005 $Y=15.465
Re55	GNDA#50	GNDA#44	0.113534	$MET2	$W=1.46e-06
+ $X=18.4605 $Y=15.465
Re56	GNDA#44	GNDA#38	0.113534	$MET2	$W=1.46e-06
+ $X=16.2205 $Y=15.465
Re57	GNDA#38	GNDA#32	0.035479	$MET2	$W=1.46e-06
+ $X=15.1 $Y=15.465
Re58	GNDA#32	GNDA#26	0.078055	$MET2	$W=1.46e-06
+ $X=13.6305 $Y=15.465
Re59	GNDA#26	GNDA#1278	0.466740	$MET2	$W=1.46e-06
+ $X=12.3455 $Y=15.465
Re60	net6#56	net6#41	1.840603	$MET2	$W=1.46e-06
+ $X=22.2405 $Y=13.685
Re61	net6#41	net6#65	0.589973	$MET2	$W=1.46e-06
+ $X=13.3205 $Y=13.685
Re62	net2#12	net2#3	1.840603	$MET2	$W=1.46e-06
+ $X=20.0005 $Y=11.905
Re63	net2#3	net2#31	0.386219	$MET2	$W=1.46e-06
+ $X=13.0905 $Y=11.905
Re64	net7#10	net7#3	2.125452	$MET2	$W=1.46e-06
+ $X=27.0305 $Y=10.125
Re65	net6#50	net6#35	1.840603	$MET2	$W=1.46e-06
+ $X=20.0005 $Y=43.665
Re66	net6#35	net6#68	0.476438	$MET2	$W=1.46e-06
+ $X=12.2005 $Y=43.665
Re67	net6#68	net6#23	0.752006	$MET2	$W=1.46e-06
+ $X=4.89 $Y=49.677
Re68	net6#23	net6#26	0.156110	$MET2	$W=1.46e-06
+ $X=11.6145 $Y=52.335
Re69	net6#26	net6#32	1.656110	$MET2	$W=1.46e-06
+ $X=14.6945 $Y=52.335
Re70	net14#26	net14#21	0.571219	$MET2	$W=1.46e-06
+ $X=39.7055 $Y=136.38
Re71	net14#21	net14#9	1.954137	$MET2	$W=1.46e-06
+ $X=29.8505 $Y=136.38
Re72	net16#87	net16#69	1.954137	$MET2	$W=1.46e-06
+ $X=23.1305 $Y=134.6
Re73	net16#69	net16#112	0.649274	$MET2	$W=1.46e-06
+ $X=12.5055 $Y=134.6
Re74	OUT#67	OUT#51	0.434370	$MET2	$W=1.46e-06
+ $X=42.8355 $Y=132.82
Re75	OUT#51	OUT#45	0.113534	$MET2	$W=1.46e-06
+ $X=37.6905 $Y=132.82
Re76	OUT#45	OUT#39	0.227068	$MET2	$W=1.46e-06
+ $X=34.3305 $Y=132.82
Re77	OUT#39	OUT#33	0.113534	$MET2	$W=1.46e-06
+ $X=30.9705 $Y=132.82
Re78	OUT#33	OUT#27	0.340603	$MET2	$W=1.46e-06
+ $X=26.4905 $Y=132.82
Re79	OUT#27	OUT#21	0.113534	$MET2	$W=1.46e-06
+ $X=22.0105 $Y=132.82
Re80	OUT#21	OUT#15	0.227068	$MET2	$W=1.46e-06
+ $X=18.6505 $Y=132.82
Re81	OUT#15	OUT#9	1.613534	$MET2	$W=1.46e-06
+ $X=15.2905 $Y=132.82
Re82	VDD3A#255	VDD3A#109	0.502726	$MET2	$W=1.46e-06
+ $X=41.9205 $Y=131.04
Re83	VDD3A#109	VDD3A#101	0.078055	$MET2	$W=1.46e-06
+ $X=40.2805 $Y=131.04
Re84	VDD3A#101	VDD3A#95	0.113534	$MET2	$W=1.46e-06
+ $X=38.3905 $Y=131.04
Re85	VDD3A#95	VDD3A#89	0.113534	$MET2	$W=1.46e-06
+ $X=36.1505 $Y=131.04
Re86	VDD3A#89	VDD3A#83	0.113534	$MET2	$W=1.46e-06
+ $X=33.9105 $Y=131.04
Re87	VDD3A#83	VDD3A#77	0.113534	$MET2	$W=1.46e-06
+ $X=31.6705 $Y=131.04
Re88	VDD3A#77	VDD3A#71	0.113534	$MET2	$W=1.46e-06
+ $X=29.4305 $Y=131.04
Re89	VDD3A#71	VDD3A#65	0.113534	$MET2	$W=1.46e-06
+ $X=27.1905 $Y=131.04
Re90	VDD3A#65	VDD3A#59	0.113534	$MET2	$W=1.46e-06
+ $X=24.9505 $Y=131.04
Re91	VDD3A#59	VDD3A#53	0.113534	$MET2	$W=1.46e-06
+ $X=22.7105 $Y=131.04
Re92	VDD3A#53	VDD3A#47	0.113534	$MET2	$W=1.46e-06
+ $X=20.4705 $Y=131.04
Re93	VDD3A#47	VDD3A#41	0.113534	$MET2	$W=1.46e-06
+ $X=18.2305 $Y=131.04
Re94	VDD3A#41	VDD3A#35	0.113534	$MET2	$W=1.46e-06
+ $X=15.9905 $Y=131.04
Re95	VDD3A#35	VDD3A#29	0.113534	$MET2	$W=1.46e-06
+ $X=13.7505 $Y=131.04
Re96	VDD3A#29	VDD3A#23	0.035479	$MET2	$W=1.46e-06
+ $X=12.63 $Y=131.04
Re97	VDD3A#23	VDD3A#15	0.078055	$MET2	$W=1.46e-06
+ $X=11.1605 $Y=131.04
Re98	VDD3A#15	VDD3A#272	0.502726	$MET2	$W=1.46e-06
+ $X=9.5205 $Y=131.04
Re99	net16#104	net16#114	2.610348	$MET2	$W=4.6e-07
+ $X=36.9205 $Y=117.7
Re100	net16#114	net16#115	0.360348	$MET2	$W=4.6e-07
+ $X=34.6805 $Y=117.7
Re101	net16#115	net16#116	0.360348	$MET2	$W=4.6e-07
+ $X=32.4405 $Y=117.7
Re102	net16#116	net16#117	0.360348	$MET2	$W=4.6e-07
+ $X=30.2005 $Y=117.7
Re103	net16#117	net16#118	0.360348	$MET2	$W=4.6e-07
+ $X=27.9605 $Y=117.7
Re104	net16#118	net16#119	0.360348	$MET2	$W=4.6e-07
+ $X=25.7205 $Y=117.7
Re105	net16#119	net16#120	0.360348	$MET2	$W=4.6e-07
+ $X=23.4805 $Y=117.7
Re106	net16#120	net16#121	0.360348	$MET2	$W=4.6e-07
+ $X=21.2405 $Y=117.7
Re107	net16#121	net16#122	0.360348	$MET2	$W=4.6e-07
+ $X=19.0005 $Y=117.7
Re108	net16#122	net16#123	0.360348	$MET2	$W=4.6e-07
+ $X=16.7605 $Y=117.7
Re109	net16#123	net16#124	0.360348	$MET2	$W=4.6e-07
+ $X=14.5205 $Y=117.7
Re110	net16#124	net16#125	2.716174	$MET2	$W=4.6e-07
+ $X=9.7505 $Y=117.7
Re111	VDD3A#273	VDD3A#114	0.127726	$MET2	$W=1.46e-06
+ $X=41.9205 $Y=104.22
Re112	VDD3A#114	VDD3A#104	0.078055	$MET2	$W=1.46e-06
+ $X=40.2805 $Y=104.22
Re113	VDD3A#104	VDD3A#98	0.113534	$MET2	$W=1.46e-06
+ $X=38.3905 $Y=104.22
Re114	VDD3A#98	VDD3A#92	0.113534	$MET2	$W=1.46e-06
+ $X=36.1505 $Y=104.22
Re115	VDD3A#92	VDD3A#86	0.113534	$MET2	$W=1.46e-06
+ $X=33.9105 $Y=104.22
Re116	VDD3A#86	VDD3A#80	0.113534	$MET2	$W=1.46e-06
+ $X=31.6705 $Y=104.22
Re117	VDD3A#80	VDD3A#74	0.113534	$MET2	$W=1.46e-06
+ $X=29.4305 $Y=104.22
Re118	VDD3A#74	VDD3A#68	0.113534	$MET2	$W=1.46e-06
+ $X=27.1905 $Y=104.22
Re119	VDD3A#68	VDD3A#62	0.113534	$MET2	$W=1.46e-06
+ $X=24.9505 $Y=104.22
Re120	VDD3A#62	VDD3A#56	0.113534	$MET2	$W=1.46e-06
+ $X=22.7105 $Y=104.22
Re121	VDD3A#56	VDD3A#50	0.113534	$MET2	$W=1.46e-06
+ $X=20.4705 $Y=104.22
Re122	VDD3A#50	VDD3A#44	0.113534	$MET2	$W=1.46e-06
+ $X=18.2305 $Y=104.22
Re123	VDD3A#44	VDD3A#38	0.113534	$MET2	$W=1.46e-06
+ $X=15.9905 $Y=104.22
Re124	VDD3A#38	VDD3A#32	0.113534	$MET2	$W=1.46e-06
+ $X=13.7505 $Y=104.22
Re125	VDD3A#32	VDD3A#26	0.035479	$MET2	$W=1.46e-06
+ $X=12.63 $Y=104.22
Re126	VDD3A#26	VDD3A#20	0.078055	$MET2	$W=1.46e-06
+ $X=11.1605 $Y=104.22
Re127	VDD3A#20	VDD3A#290	0.127726	$MET2	$W=1.46e-06
+ $X=9.5205 $Y=104.22
Re128	net14#29	net14#15	1.411822	$MET2	$W=1.46e-06
+ $X=36.3455 $Y=102.44
Re129	net14#15	net14#3	1.954137	$MET2	$W=1.46e-06
+ $X=23.1305 $Y=102.44
Re130	net16#99	net16#81	1.954137	$MET2	$W=1.46e-06
+ $X=29.8505 $Y=100.66
Re131	net16#81	net16#128	1.489877	$MET2	$W=1.46e-06
+ $X=15.8655 $Y=100.66
Re132	OUT#76	OUT#54	0.934370	$MET2	$W=1.46e-06
+ $X=42.8355 $Y=98.88
Re133	OUT#54	OUT#48	0.113534	$MET2	$W=1.46e-06
+ $X=37.6905 $Y=98.88
Re134	OUT#48	OUT#42	0.227068	$MET2	$W=1.46e-06
+ $X=34.3305 $Y=98.88
Re135	OUT#42	OUT#36	0.113534	$MET2	$W=1.46e-06
+ $X=30.9705 $Y=98.88
Re136	OUT#36	OUT#30	0.340603	$MET2	$W=1.46e-06
+ $X=26.4905 $Y=98.88
Re137	OUT#30	OUT#24	0.113534	$MET2	$W=1.46e-06
+ $X=22.0105 $Y=98.88
Re138	OUT#24	OUT#18	0.227068	$MET2	$W=1.46e-06
+ $X=18.6505 $Y=98.88
Re139	OUT#18	OUT#12	1.613534	$MET2	$W=1.46e-06
+ $X=15.2905 $Y=98.88
Re140	net1#5	net1#9	1.453968	$MET2	$W=3e-07
+ $X=68.605 $Y=101.878
Re141	net11#33	net11#71	1.164832	$MET2	$W=1.96e-06
+ $X=70.11 $Y=136.13
Re142	net20#17	net20#10	3.253826	$MET2	$W=4.6e-07
+ $X=65.2755 $Y=117.84
Re143	net20#10	net20#20	0.776265	$MET2	$W=4.6e-07
+ $X=59.613 $Y=117.84
Re144	net20#20	net20#21	0.519287	$MET2	$W=1.96e-06
+ $X=56.58 $Y=113.8275
Re146	net20#20	net20#13	2.009884	$MET2	$W=1.96e-06
+ $X=56.58 $Y=125.47
Re148	GNDA#1279	GNDA#189	0.070312	$MET2	$W=8.06e-06
+ $X=75.36 $Y=6.055
Re149	net10#15	net10#8	3.253826	$MET2	$W=4.6e-07
+ $X=84.6955 $Y=136.88
Re150	net10#15	net10#21	3.210391	$MET2	$W=4.6e-07
+ $X=93.295 $Y=131.8605
Re151	net10#21	net10#11	1.952804	$MET2	$W=1.46e-06
+ $X=88.81 $Y=121.62
Re152	net10#21	net10#18	1.363140	$MET2	$W=1.46e-06
+ $X=93.9225 $Y=121.62
Re153	net12#10	net12#7	1.577947	$MET2	$W=1.96e-06
+ $X=96.148 $Y=119.08
Re154	net12#7	net12#4	3.167471	$MET2	$W=4.6e-07
+ $X=76 $Y=117.9425
Re157	GNDA#154	GNDA#145	0.678786	$MET2	$W=1.96e-06
+ $X=100.1405 $Y=101.635
Re158	GNDA#145	GNDA#213	0.678786	$MET2	$W=1.96e-06
+ $X=97.0605 $Y=101.635
Re159	net7#12	net7#9	2.677372	$MET2	$W=1.46e-06
+ $X=85.707 $Y=116.69
Re160	net7#9	net7#6	1.209571	$MET2	$W=1.96e-06
+ $X=98.81 $Y=123.64
Re161	net21#10	net21#6	5.490466	$MET2	$W=4.6e-07
+ $X=103.695 $Y=132.577
Re162	net15#113	net15#87	2.132548	$MET2	$W=1.46e-06
+ $X=85.8155 $Y=89.245
Re163	net15#87	net15#61	0.632548	$MET2	$W=1.46e-06
+ $X=73.3355 $Y=89.245
Re164	net15#61	net15#35	0.632548	$MET2	$W=1.46e-06
+ $X=60.8555 $Y=89.245
Re165	net15#35	net15#141	0.840356	$MET2	$W=1.46e-06
+ $X=46.7155 $Y=89.245
Re166	A#95	A#94	0.127726	$MET2	$W=1.46e-06
+ $X=105.4055 $Y=58.225
Re167	A#94	A#84	0.280795	$MET2	$W=1.46e-06
+ $X=101.7655 $Y=58.225
Re168	A#84	A#78	0.316274	$MET2	$W=1.46e-06
+ $X=95.8755 $Y=58.225
Re169	A#78	A#72	0.316274	$MET2	$W=1.46e-06
+ $X=89.6355 $Y=58.225
Re170	A#72	A#66	0.316274	$MET2	$W=1.46e-06
+ $X=83.3955 $Y=58.225
Re171	A#66	A#60	0.316274	$MET2	$W=1.46e-06
+ $X=77.1555 $Y=58.225
Re172	A#60	A#54	0.316274	$MET2	$W=1.46e-06
+ $X=70.9155 $Y=58.225
Re173	A#54	A#48	0.316274	$MET2	$W=1.46e-06
+ $X=64.6755 $Y=58.225
Re174	A#48	A#42	0.316274	$MET2	$W=1.46e-06
+ $X=58.4355 $Y=58.225
Re175	A#42	A#36	0.316274	$MET2	$W=1.46e-06
+ $X=52.1955 $Y=58.225
Re176	A#36	A#30	0.035479	$MET2	$W=1.46e-06
+ $X=49.075 $Y=58.225
Re177	A#30	A#24	0.280795	$MET2	$W=1.46e-06
+ $X=45.6055 $Y=58.225
Re178	A#24	A#108	0.127726	$MET2	$W=1.46e-06
+ $X=41.9655 $Y=58.225
Re179	net15#126	net15#100	2.132548	$MET2	$W=1.46e-06
+ $X=92.0555 $Y=56.445
Re180	net15#100	net15#74	0.632548	$MET2	$W=1.46e-06
+ $X=79.5755 $Y=56.445
Re181	net15#74	net15#48	0.632548	$MET2	$W=1.46e-06
+ $X=67.0955 $Y=56.445
Re182	net15#48	net15#146	1.531630	$MET2	$W=1.46e-06
+ $X=49.8355 $Y=56.445
Re183	net17#65	net17#47	1.250836	$MET2	$W=1.46e-06
+ $X=100.3055 $Y=54.665
Re184	net17#47	net17#35	0.632548	$MET2	$W=1.46e-06
+ $X=85.8155 $Y=54.665
Re185	net17#35	net17#23	0.632548	$MET2	$W=1.46e-06
+ $X=73.3355 $Y=54.665
Re186	net17#23	net17#11	2.132548	$MET2	$W=1.46e-06
+ $X=60.8555 $Y=54.665
Re187	A#109	A#89	0.127726	$MET2	$W=1.46e-06
+ $X=105.4055 $Y=85.685
Re188	A#89	A#81	0.280795	$MET2	$W=1.46e-06
+ $X=101.7655 $Y=85.685
Re189	A#81	A#75	0.316274	$MET2	$W=1.46e-06
+ $X=95.8755 $Y=85.685
Re190	A#75	A#69	0.316274	$MET2	$W=1.46e-06
+ $X=89.6355 $Y=85.685
Re191	A#69	A#63	0.316274	$MET2	$W=1.46e-06
+ $X=83.3955 $Y=85.685
Re192	A#63	A#57	0.316274	$MET2	$W=1.46e-06
+ $X=77.1555 $Y=85.685
Re193	A#57	A#51	0.316274	$MET2	$W=1.46e-06
+ $X=70.9155 $Y=85.685
Re194	A#51	A#45	0.316274	$MET2	$W=1.46e-06
+ $X=64.6755 $Y=85.685
Re195	A#45	A#39	0.316274	$MET2	$W=1.46e-06
+ $X=58.4355 $Y=85.685
Re196	A#39	A#33	0.316274	$MET2	$W=1.46e-06
+ $X=52.1955 $Y=85.685
Re197	A#33	A#27	0.035479	$MET2	$W=1.46e-06
+ $X=49.075 $Y=85.685
Re198	A#27	A#19	0.280795	$MET2	$W=1.46e-06
+ $X=45.6055 $Y=85.685
Re199	A#19	A#122	0.127726	$MET2	$W=1.46e-06
+ $X=41.9655 $Y=85.685
Re200	A#122	A#14	1.133157	$MET2	$W=1.46e-06
+ $X=34.8 $Y=78.948
Re201	A#14	A#11	1.656110	$MET2	$W=1.46e-06
+ $X=26.2505 $Y=74.485
Re202	net15#136	net15#110	2.132548	$MET2	$W=1.46e-06
+ $X=93.7305 $Y=42.29
Re203	net15#110	net15#84	0.632548	$MET2	$W=1.46e-06
+ $X=81.2505 $Y=42.29
Re204	net15#84	net15#58	0.632548	$MET2	$W=1.46e-06
+ $X=68.7705 $Y=42.29
Re205	net15#58	net15#151	1.495644	$MET2	$W=1.46e-06
+ $X=51.8655 $Y=42.29
Re206	net17#70	net17#50	1.214849	$MET2	$W=1.46e-06
+ $X=101.6255 $Y=40.51
Re207	net17#50	net17#38	0.632548	$MET2	$W=1.46e-06
+ $X=87.4905 $Y=40.51
Re208	net17#38	net17#26	0.632548	$MET2	$W=1.46e-06
+ $X=75.0105 $Y=40.51
Re209	net17#26	net17#14	2.132548	$MET2	$W=1.46e-06
+ $X=62.5305 $Y=40.51
Re210	GNDA#1284	GNDA#155	0.091740	$MET2	$W=1.46e-06
+ $X=106.7255 $Y=38.73
Re211	GNDA#155	GNDA#148	0.280795	$MET2	$W=1.46e-06
+ $X=103.4405 $Y=38.73
Re212	GNDA#148	GNDA#139	0.316274	$MET2	$W=1.46e-06
+ $X=97.5505 $Y=38.73
Re213	GNDA#139	GNDA#133	0.316274	$MET2	$W=1.46e-06
+ $X=91.3105 $Y=38.73
Re214	GNDA#133	GNDA#127	0.316274	$MET2	$W=1.46e-06
+ $X=85.0705 $Y=38.73
Re215	GNDA#127	GNDA#121	0.316274	$MET2	$W=1.46e-06
+ $X=78.8305 $Y=38.73
Re216	GNDA#121	GNDA#115	0.316274	$MET2	$W=1.46e-06
+ $X=72.5905 $Y=38.73
Re217	GNDA#115	GNDA#109	0.316274	$MET2	$W=1.46e-06
+ $X=66.3505 $Y=38.73
Re218	GNDA#109	GNDA#103	0.316274	$MET2	$W=1.46e-06
+ $X=60.1105 $Y=38.73
Re219	GNDA#103	GNDA#97	0.316274	$MET2	$W=1.46e-06
+ $X=53.8705 $Y=38.73
Re220	GNDA#97	GNDA#91	0.035479	$MET2	$W=1.46e-06
+ $X=50.75 $Y=38.73
Re221	GNDA#91	GNDA#83	0.280795	$MET2	$W=1.46e-06
+ $X=47.2805 $Y=38.73
Re222	GNDA#83	GNDA#1297	0.091740	$MET2	$W=1.46e-06
+ $X=43.9955 $Y=38.73
Re223	net15#129	net15#153	3.253826	$MET2	$W=4.6e-07
+ $X=94.0805 $Y=26.4
Re224	net15#153	net15#154	1.003826	$MET2	$W=4.6e-07
+ $X=87.8405 $Y=26.4
Re225	net15#154	net15#155	1.003826	$MET2	$W=4.6e-07
+ $X=81.6005 $Y=26.4
Re226	net15#155	net15#156	1.003826	$MET2	$W=4.6e-07
+ $X=75.3605 $Y=26.4
Re227	net15#156	net15#157	1.003826	$MET2	$W=4.6e-07
+ $X=69.1205 $Y=26.4
Re228	net15#157	net15#158	1.003826	$MET2	$W=4.6e-07
+ $X=62.8805 $Y=26.4
Re229	net15#158	net15#159	1.003826	$MET2	$W=4.6e-07
+ $X=56.6405 $Y=26.4
Re230	net15#159	net15#160	3.232391	$MET2	$W=4.6e-07
+ $X=47.2305 $Y=26.4
Re231	GNDA#1298	GNDA#160	0.466740	$MET2	$W=1.46e-06
+ $X=106.7255 $Y=14.01
Re232	GNDA#160	GNDA#151	0.280795	$MET2	$W=1.46e-06
+ $X=103.4405 $Y=14.01
Re233	GNDA#151	GNDA#142	0.316274	$MET2	$W=1.46e-06
+ $X=97.5505 $Y=14.01
Re234	GNDA#142	GNDA#136	0.316274	$MET2	$W=1.46e-06
+ $X=91.3105 $Y=14.01
Re235	GNDA#136	GNDA#130	0.316274	$MET2	$W=1.46e-06
+ $X=85.0705 $Y=14.01
Re236	GNDA#130	GNDA#124	0.316274	$MET2	$W=1.46e-06
+ $X=78.8305 $Y=14.01
Re237	GNDA#124	GNDA#118	0.316274	$MET2	$W=1.46e-06
+ $X=72.5905 $Y=14.01
Re238	GNDA#118	GNDA#112	0.316274	$MET2	$W=1.46e-06
+ $X=66.3505 $Y=14.01
Re239	GNDA#112	GNDA#106	0.316274	$MET2	$W=1.46e-06
+ $X=60.1105 $Y=14.01
Re240	GNDA#106	GNDA#100	0.316274	$MET2	$W=1.46e-06
+ $X=53.8705 $Y=14.01
Re241	GNDA#100	GNDA#94	0.035479	$MET2	$W=1.46e-06
+ $X=50.75 $Y=14.01
Re242	GNDA#94	GNDA#88	0.280795	$MET2	$W=1.46e-06
+ $X=47.2805 $Y=14.01
Re243	GNDA#88	GNDA#1311	0.466740	$MET2	$W=1.46e-06
+ $X=43.9955 $Y=14.01
Re244	net15#123	net15#97	2.132548	$MET2	$W=1.46e-06
+ $X=87.4905 $Y=12.23
Re245	net15#97	net15#71	0.632548	$MET2	$W=1.46e-06
+ $X=75.0105 $Y=12.23
Re246	net15#71	net15#45	0.632548	$MET2	$W=1.46e-06
+ $X=62.5305 $Y=12.23
Re247	net15#45	net15#165	0.804370	$MET2	$W=1.46e-06
+ $X=48.7455 $Y=12.23
Re248	net17#75	net17#62	0.898575	$MET2	$W=1.46e-06
+ $X=104.7455 $Y=10.45
Re249	net17#62	net17#44	0.632548	$MET2	$W=1.46e-06
+ $X=93.7305 $Y=10.45
Re250	net17#44	net17#32	0.632548	$MET2	$W=1.46e-06
+ $X=81.2505 $Y=10.45
Re251	net17#32	net17#20	2.132548	$MET2	$W=1.46e-06
+ $X=68.7705 $Y=10.45
Re252	net17#80	net17#57	0.559562	$MET2	$W=1.46e-06
+ $X=104.19 $Y=87.465
Re253	net17#57	net17#41	0.632548	$MET2	$W=1.46e-06
+ $X=92.0555 $Y=87.465
Re254	net17#41	net17#29	0.632548	$MET2	$W=1.46e-06
+ $X=79.5755 $Y=87.465
Re255	net17#29	net17#17	2.132548	$MET2	$W=1.46e-06
+ $X=67.0955 $Y=87.465
Re256	net17#80	net17#52	8.771074	$MET2	$W=4.6e-07
+ $X=110.8225 $Y=87.47
Re257	net17#52	net17#54	0.247739	$MET2	$W=4.6e-07
+ $X=97.0595 $Y=114.275
Re258	net17#54	net17#59	0.247739	$MET2	$W=4.6e-07
+ $X=98.5995 $Y=114.275
Re259	net17#59	net17#64	2.497739	$MET2	$W=4.6e-07
+ $X=100.1395 $Y=114.275
Re260	VDD3A#143	VDD3A#140	1.816274	$MET2	$W=1.46e-06
+ $X=81.9255 $Y=123.4
Re261	VDD3A#140	VDD3A#293	0.492945	$MET2	$W=1.46e-06
+ $X=76.08 $Y=126.487
Re262	VDD3A#293	VDD3A#294	0.193236	$MET2	$W=3.18e-06
+ $X=75.22 $Y=135.79
Re263	VDD3A#294	VDD3A#295	0.237811	$MET2	$W=4.89e-06
+ $X=67.2275 $Y=141.475
Re264	VDD3A#295	VDD3A#296	0.168856	$MET2	$W=4.89e-06
+ $X=53.1375 $Y=141.475
Re265	VDD3A#296	VDD3A#297	0.318179	$MET2	$W=4.89e-06
+ $X=37.9475 $Y=141.475
Re266	VDD3A#297	VDD3A	0.223952	$MET2	$W=4.89e-06
+ $X=15.0305 $Y=141.475
Re267	VDD3A	VDD3A#191	0.268713	$MET2	$W=4.89e-06
+ $X=9.935 $Y=141.73
Re268	VDD3A#293	VDD3A#120	0.315308	$MET2	$W=1.96e-06
+ $X=69.7275 $Y=131.57
Re269	VDD3A#120	VDD3A#117	1.360592	$MET2	$W=1.96e-06
+ $X=62.5055 $Y=131.57
Re270	VDD3A#294	VDD3A#301	0.139750	$MET2	$W=4.89e-06
+ $X=79.9725 $Y=141.475
Re271	VDD3A#301	VDD3A#235	0.919862	$MET2	$W=4.89e-06
+ $X=98.0825 $Y=141.475
Re272	VDD3A#249	VDD3A#163	0.717252	$MET2	$W=3.96e-06
+ $X=118.01 $Y=38.515
Re273	OUT#66	OUT#86	0.479319	$MET2	$W=1.96e-06
+ $X=115.515 $Y=94.6465
Re274	OUT#86	OUT#62	0.549633	$MET2	$W=1.96e-06
+ $X=107.5675 $Y=99.355
Re275	OUT#62	OUT#57	0.116286	$MET2	$W=1.96e-06
+ $X=98.6005 $Y=99.355
Re276	OUT#57	OUT#89	0.028128	$MET2	$W=1.96e-06
+ $X=96.4275 $Y=99.355
Re277	OUT#66	OUT#90	0.163102	$MET2	$W=1.96e-06
+ $X=118.84 $Y=85.876
Re278	OUT#86	OUT#64	1.476090	$MET2	$W=1.96e-06
+ $X=115.515 $Y=111.59
Re279	OUT#64	OUT#92	0.004613	$MET2	$W=1.965e-06
+ $X=118.8025 $Y=136.6325
Re280	OUT#92	OUT#59	6.375041	$MET2	$W=4.6e-07
+ $X=117.205 $Y=136.36
Re281	net11#53	net11#73	2.611165	$MET2	$W=4.6e-07
+ $X=104.462 $Y=72.345
Re282	net11#73	net11#74	9.832807	$MET2	$W=4.6e-07
+ $X=115.4825 $Y=72.345
Re283	net11#74	net11#55	0.281250	$MET2	$W=2.05e-06
+ $X=208.725 $Y=98.25
Re284	net11#53	net11#49	0.934652	$MET2	$W=4.6e-07
+ $X=93.3005 $Y=72.345
Re285	net11#49	net11#45	1.073000	$MET2	$W=4.6e-07
+ $X=87.0605 $Y=72.345
Re286	net11#45	net11#41	0.934652	$MET2	$W=4.6e-07
+ $X=80.8205 $Y=72.345
Re287	net11#41	net11#37	1.073000	$MET2	$W=4.6e-07
+ $X=74.5805 $Y=72.345
Re288	net11#37	net11#30	0.934652	$MET2	$W=4.6e-07
+ $X=68.3405 $Y=72.345
Re289	net11#30	net11#26	1.073000	$MET2	$W=4.6e-07
+ $X=62.1005 $Y=72.345
Re290	net11#26	net11#22	3.184652	$MET2	$W=4.6e-07
+ $X=55.8605 $Y=72.345
Re292	net23#54	net23#52	12.466352	$MET2	$W=4.6e-07
+ $X=117.34 $Y=69.235
Re293	net23#52	net23#48	1.090696	$MET2	$W=4.6e-07
+ $X=92.1355 $Y=71.565
Re294	net23#48	net23#44	0.916957	$MET2	$W=4.6e-07
+ $X=85.8955 $Y=71.565
Re295	net23#44	net23#40	1.090696	$MET2	$W=4.6e-07
+ $X=79.6555 $Y=71.565
Re296	net23#40	net23#36	0.916957	$MET2	$W=4.6e-07
+ $X=73.4155 $Y=71.565
Re297	net23#36	net23#32	1.090696	$MET2	$W=4.6e-07
+ $X=67.1755 $Y=71.565
Re298	net23#32	net23#28	0.916957	$MET2	$W=4.6e-07
+ $X=60.9355 $Y=71.565
Re299	net23#28	net23#24	3.340696	$MET2	$W=4.6e-07
+ $X=54.6955 $Y=71.565
Re300	net23#54	net23#55	7.534297	$MET2	$W=9.6e-07
+ $X=208.665 $Y=46.8725
Re301	net11#83	net11#59	0.180000	$MET2	$W=2.5e-06
+ $X=321.075 $Y=68.105
Re303	net9#184	net9#185	0.325179	$MET2	$W=1.96e-06
+ $X=357.86 $Y=138.435
Re304	net9#185	net9#186	0.632398	$MET2	$W=1.96e-06
+ $X=357.86 $Y=123.3955
Re305	net9#186	net9#187	0.632398	$MET2	$W=1.96e-06
+ $X=357.86 $Y=106.6455
Re306	net9#187	net9#188	0.632398	$MET2	$W=1.96e-06
+ $X=357.86 $Y=89.8955
Re307	net9#188	net9#189	0.632398	$MET2	$W=1.96e-06
+ $X=357.86 $Y=73.1455
Re308	net9#189	net9#190	0.632398	$MET2	$W=1.96e-06
+ $X=357.86 $Y=56.3955
Re309	net9#190	net9#191	0.632398	$MET2	$W=1.96e-06
+ $X=357.86 $Y=39.6455
Re310	net9#191	net9#192	0.632398	$MET2	$W=1.96e-06
+ $X=357.86 $Y=22.8955
Re311	net9#192	net9#193	0.970533	$MET2	$W=1.695e-06
+ $X=349.4825 $Y=7.2425
Re312	net9#193	net9#194	0.729474	$MET2	$W=1.695e-06
+ $X=332.7275 $Y=7.2425
Re313	net9#194	net9#195	0.726017	$MET2	$W=1.695e-06
+ $X=315.9725 $Y=7.2425
Re314	net9#195	net9#3	0.884336	$MET2	$W=9.4e-07
+ $X=296.735 $Y=9.4475
Re315	net9#195	net9#197	0.245255	$MET2	$W=1.96e-06
+ $X=307.595 $Y=8.865
Re316	net9#197	net9#198	0.632398	$MET2	$W=1.96e-06
+ $X=307.595 $Y=22.8945
Re317	net9#198	net9#199	0.632398	$MET2	$W=1.96e-06
+ $X=307.595 $Y=39.6445
Re318	net9#199	net9#200	0.632398	$MET2	$W=1.96e-06
+ $X=307.595 $Y=56.3945
Re319	net9#200	net9#201	0.632398	$MET2	$W=1.96e-06
+ $X=307.595 $Y=73.1445
Re320	net9#201	net9#202	0.632398	$MET2	$W=1.96e-06
+ $X=307.595 $Y=89.8945
Re321	net9#202	net9#203	0.632398	$MET2	$W=1.96e-06
+ $X=307.595 $Y=106.6445
Re322	net9#203	net9#204	0.632398	$MET2	$W=1.96e-06
+ $X=307.595 $Y=123.3945
Re323	net9#204	net9#205	0.325179	$MET2	$W=1.96e-06
+ $X=307.595 $Y=138.4345
Re325	net9#205	net9#207	0.625412	$MET2	$W=1.96e-06
+ $X=315.9725 $Y=141.2
Re326	net9#207	net9#208	0.325179	$MET2	$W=1.96e-06
+ $X=324.35 $Y=138.435
Re327	net9#208	net9#209	0.632398	$MET2	$W=1.96e-06
+ $X=324.35 $Y=123.3955
Re328	net9#209	net9#210	0.632398	$MET2	$W=1.96e-06
+ $X=324.35 $Y=106.6455
Re329	net9#210	net9#211	0.632398	$MET2	$W=1.96e-06
+ $X=324.35 $Y=89.8955
Re330	net9#211	net9#212	1.264796	$MET2	$W=1.96e-06
+ $X=324.35 $Y=64.7705
Re331	net9#212	net9#213	0.632398	$MET2	$W=1.96e-06
+ $X=324.35 $Y=39.6455
Re332	net9#213	net9#214	0.632398	$MET2	$W=1.96e-06
+ $X=324.35 $Y=22.8955
Re333	net9#214	net9#215	0.212935	$MET2	$W=1.96e-06
+ $X=324.35 $Y=14.52
Re334	net9#207	net9#216	0.625412	$MET2	$W=1.96e-06
+ $X=332.7275 $Y=141.2
Re335	net9#216	net9#217	0.325179	$MET2	$W=1.96e-06
+ $X=341.105 $Y=138.435
Re336	net9#217	net9#218	0.632398	$MET2	$W=1.96e-06
+ $X=341.105 $Y=123.3955
Re337	net9#218	net9#219	0.632398	$MET2	$W=1.96e-06
+ $X=341.105 $Y=106.6455
Re338	net9#219	net9#220	0.632398	$MET2	$W=1.96e-06
+ $X=341.105 $Y=89.8955
Re339	net9#220	net9#221	0.632398	$MET2	$W=1.96e-06
+ $X=341.105 $Y=73.1455
Re340	net9#221	net9#222	0.632398	$MET2	$W=1.96e-06
+ $X=341.105 $Y=56.3955
Re341	net9#222	net9#223	0.632398	$MET2	$W=1.96e-06
+ $X=341.105 $Y=39.6455
Re342	net9#223	net9#224	0.632398	$MET2	$W=1.96e-06
+ $X=341.105 $Y=22.8955
Re343	net9#224	net9#225	0.212935	$MET2	$W=1.96e-06
+ $X=341.105 $Y=14.52
Re344	net9#215	net9#194	0.029452	$MET2	$W=1.96e-06
+ $X=324.355 $Y=8.87
Re345	net9#216	net9#226	0.307135	$MET2	$W=1.96e-06
+ $X=341.105 $Y=141.2
Re346	net9#225	net9#193	0.029452	$MET2	$W=1.96e-06
+ $X=341.11 $Y=8.87
Re347	net9#226	net9#184	0.307135	$MET2	$W=1.96e-06
+ $X=356.86 $Y=141.2
Re644	net9#50	net9#197	0.281250	$MET2	$W=1.0816e-06
+ $X=307.595 $Y=14.52
Re645	net9#44	net9#198	0.281250	$MET2	$W=1.0816e-06
+ $X=307.595 $Y=31.27
Re646	net9#38	net9#199	0.281250	$MET2	$W=1.0816e-06
+ $X=307.595 $Y=48.02
Re647	net9#32	net9#200	0.281250	$MET2	$W=1.0816e-06
+ $X=307.595 $Y=64.77
Re648	net9#26	net9#201	0.281250	$MET2	$W=1.0816e-06
+ $X=307.595 $Y=81.52
Re649	net9#20	net9#202	0.281250	$MET2	$W=1.0816e-06
+ $X=307.595 $Y=98.27
Re650	net9#14	net9#203	0.281250	$MET2	$W=1.0816e-06
+ $X=307.595 $Y=115.02
Re651	net9#8	net9#204	0.281250	$MET2	$W=1.0816e-06
+ $X=307.595 $Y=131.77
Re652	net9#55	net9#208	0.281250	$MET2	$W=1.0816e-06
+ $X=324.35 $Y=131.77
Re653	net9#61	net9#209	0.281250	$MET2	$W=1.0816e-06
+ $X=324.35 $Y=115.02
Re654	net9#67	net9#210	0.281250	$MET2	$W=1.0816e-06
+ $X=324.35 $Y=98.27
Re655	net9#73	net9#211	0.281250	$MET2	$W=1.0816e-06
+ $X=324.35 $Y=81.52
Re656	net9#79	net9#212	0.281250	$MET2	$W=1.0816e-06
+ $X=324.35 $Y=48.02
Re657	net9#85	net9#213	0.281250	$MET2	$W=1.0816e-06
+ $X=324.35 $Y=31.27
Re658	net9#91	net9#214	0.281250	$MET2	$W=1.0816e-06
+ $X=324.35 $Y=14.52
Re659	net9#97	net9#217	0.281250	$MET2	$W=1.0816e-06
+ $X=341.105 $Y=131.77
Re660	net9#102	net9#218	0.281250	$MET2	$W=1.0816e-06
+ $X=341.105 $Y=115.02
Re661	net9#107	net9#219	0.281250	$MET2	$W=1.0816e-06
+ $X=341.105 $Y=98.27
Re662	net9#112	net9#220	0.281250	$MET2	$W=1.0816e-06
+ $X=341.105 $Y=81.52
Re663	net9#117	net9#221	0.281250	$MET2	$W=1.0816e-06
+ $X=341.105 $Y=64.77
Re664	net9#122	net9#222	0.281250	$MET2	$W=1.0816e-06
+ $X=341.105 $Y=48.02
Re665	net9#127	net9#223	0.281250	$MET2	$W=1.0816e-06
+ $X=341.105 $Y=31.27
Re666	net9#132	net9#224	0.281250	$MET2	$W=1.0816e-06
+ $X=341.105 $Y=14.52
Re445	net16#101	net16#114	2.250000	$MET2	$W=1.352e-07
+ $X=35.8 $Y=117.7
Re446	net16#95	net16#115	2.250000	$MET2	$W=1.352e-07
+ $X=33.56 $Y=117.7
Re447	net16#92	net16#116	2.250000	$MET2	$W=1.352e-07
+ $X=31.32 $Y=117.7
Re448	net16#89	net16#117	2.250000	$MET2	$W=1.352e-07
+ $X=29.08 $Y=117.7
Re449	net16#83	net16#118	2.250000	$MET2	$W=1.352e-07
+ $X=26.84 $Y=117.7
Re450	net16#77	net16#119	2.250000	$MET2	$W=1.352e-07
+ $X=24.6 $Y=117.7
Re451	net16#74	net16#120	2.250000	$MET2	$W=1.352e-07
+ $X=22.36 $Y=117.7
Re452	net16#71	net16#121	2.250000	$MET2	$W=1.352e-07
+ $X=20.12 $Y=117.7
Re453	net16#65	net16#122	2.250000	$MET2	$W=1.352e-07
+ $X=17.88 $Y=117.7
Re454	net16#62	net16#123	2.250000	$MET2	$W=1.352e-07
+ $X=15.64 $Y=117.7
Re455	net16#56	net16#124	2.250000	$MET2	$W=1.352e-07
+ $X=13.4 $Y=117.7
Re488	net20#6	net20#21	0.236842	$MET2	$W=1.2844e-06
+ $X=62.48 $Y=109.21
Re564	net15#116	net15#153	2.250000	$MET2	$W=1.352e-07
+ $X=90.96 $Y=26.4
Re565	net15#103	net15#154	2.250000	$MET2	$W=1.352e-07
+ $X=84.72 $Y=26.4
Re566	net15#90	net15#155	2.250000	$MET2	$W=1.352e-07
+ $X=78.48 $Y=26.4
Re567	net15#77	net15#156	2.250000	$MET2	$W=1.352e-07
+ $X=72.24 $Y=26.4
Re568	net15#64	net15#157	2.250000	$MET2	$W=1.352e-07
+ $X=66 $Y=26.4
Re569	net15#51	net15#158	2.250000	$MET2	$W=1.352e-07
+ $X=59.76 $Y=26.4
Re570	net15#38	net15#159	2.250000	$MET2	$W=1.352e-07
+ $X=53.52 $Y=26.4
Re601	VDD3A#134	VDD3A#295	0.214286	$MET2	$W=1.4196e-06
+ $X=59.055 $Y=138.62
Re602	VDD3A#197	VDD3A#296	0.214286	$MET2	$W=1.4196e-06
+ $X=47.22 $Y=138.62
Re606	VDD3A#154	VDD3A#301	0.214286	$MET2	$W=1.4196e-06
+ $X=84.905 $Y=138.62
Re393	net6#46	net6#58	4.500000	$MET2	$W=6.76e-08
+ $X=22.59 $Y=27.855
Re635	net9#139	net9#185	0.281250	$MET2	$W=1.0816e-06
+ $X=357.86 $Y=131.77
Re394	net6#43	net6#59	4.500000	$MET2	$W=6.76e-08
+ $X=20.35 $Y=27.855
Re636	net9#145	net9#186	0.281250	$MET2	$W=1.0816e-06
+ $X=357.86 $Y=115.02
Re395	net6#37	net6#60	4.500000	$MET2	$W=6.76e-08
+ $X=18.11 $Y=27.855
Re637	net9#151	net9#187	0.281250	$MET2	$W=1.0816e-06
+ $X=357.86 $Y=98.27
Re396	net6#28	net6#61	4.500000	$MET2	$W=6.76e-08
+ $X=15.87 $Y=27.855
Re638	net9#157	net9#188	0.281250	$MET2	$W=1.0816e-06
+ $X=357.86 $Y=81.52
Re639	net9#163	net9#189	0.281250	$MET2	$W=1.0816e-06
+ $X=357.86 $Y=64.77
Re640	net9#169	net9#190	0.281250	$MET2	$W=1.0816e-06
+ $X=357.86 $Y=48.02
Re641	net9#175	net9#191	0.281250	$MET2	$W=1.0816e-06
+ $X=357.86 $Y=31.27
Re642	net9#181	net9#192	0.281250	$MET2	$W=1.0816e-06
+ $X=357.86 $Y=14.52
Rf1	net16#49	net16#50	3.709742	$MET1	$W=3.2e-07
+ $X=9.365 $Y=87.5
Rf2	net16#50	net16#51	3.421992	$MET1	$W=3.2e-07
+ $X=9.365 $Y=76.7005
Rf3	net16#49	net16#50	0.416667	$MET1	$W=3.2e-07
+ $X=9.365 $Y=82.4725
Rf4	net6#21	net6#22	3.709742	$MET1	$W=3.2e-07
+ $X=10.075 $Y=64.72
Rf5	net6#22	net6#23	3.270398	$MET1	$W=3.2e-07
+ $X=10.075 $Y=54.2355
Rf6	net6#21	net6#22	0.416667	$MET1	$W=3.2e-07
+ $X=10.075 $Y=59.6925
Rf7	net3#17	net3	8.512388	$MET1	$W=3.2e-07
+ $X=10.135 $Y=89.1455
Rf8	net3#19	net3#20	3.709742	$MET1	$W=3.2e-07
+ $X=10.905 $Y=87.5
Rf9	net3#20	net3#21	2.993680	$MET1	$W=3.2e-07
+ $X=10.905 $Y=77.5905
Rf10	net3#19	net3#20	0.416667	$MET1	$W=3.2e-07
+ $X=10.905 $Y=82.4725
Rf11	BIAS#17	BIAS#1	8.401701	$MET1	$W=3.2e-07
+ $X=10.845 $Y=66.1355
Rf12	VDD3A#1	VDD3A#13	5.013042	$MET1	$W=3.2e-07
+ $X=10.39 $Y=118.9745
Rf13	VDD3A#13	VDD3A#14	1.210344	$MET1	$W=3.2e-07
+ $X=10.39 $Y=127.7095
Rf14	VDD3A#14	VDD3A#15	2.128031	$MET1	$W=3.2e-07
+ $X=10.39 $Y=129.7145
Rf15	VDD3A#12	VDD3A#13	0.416667	$MET1	$W=3.2e-07
+ $X=10.39 $Y=123.4
Rf16	VDD3A#12	VDD3A#14	2.500000	$MET1	$W=3.2e-07
+ $X=10.39 $Y=128.43
Rf17	VDD3A#3	VDD3A#18	4.147995	$MET1	$W=3.2e-07
+ $X=10.39 $Y=116.2855
Rf18	VDD3A#18	VDD3A#19	1.209742	$MET1	$W=3.2e-07
+ $X=10.39 $Y=114.743
Rf19	VDD3A#19	VDD3A#20	2.993680	$MET1	$W=3.2e-07
+ $X=10.39 $Y=105.5455
Rf20	VDD3A#17	VDD3A#18	2.500000	$MET1	$W=3.2e-07
+ $X=10.39 $Y=115.455
Rf21	VDD3A#17	VDD3A#19	0.416667	$MET1	$W=3.2e-07
+ $X=10.39 $Y=110.4275
Rf22	BIAS#19	BIAS#20	3.709742	$MET1	$W=3.2e-07
+ $X=11.615 $Y=64.72
Rf23	BIAS#20	BIAS#21	2.842086	$MET1	$W=3.2e-07
+ $X=11.615 $Y=55.1255
Rf24	BIAS#19	BIAS#20	0.416667	$MET1	$W=3.2e-07
+ $X=11.615 $Y=59.6925
Rf25	VDD3A#22	VDD3A#23	2.128031	$MET1	$W=3.2e-07
+ $X=11.93 $Y=129.7145
Rf26	VDD3A#22	VDD3A#21	1.627010	$MET1	$W=3.2e-07
+ $X=11.93 $Y=127.7105
Rf27	VDD3A#21	VDD3A#22	2.500000	$MET1	$W=3.2e-07
+ $X=11.93 $Y=128.43
Rf28	VDD3A#24	VDD3A#25	3.709742	$MET1	$W=3.2e-07
+ $X=11.93 $Y=115.455
Rf29	VDD3A#25	VDD3A#26	2.993680	$MET1	$W=3.2e-07
+ $X=11.93 $Y=105.5455
Rf30	VDD3A#24	VDD3A#25	0.416667	$MET1	$W=3.2e-07
+ $X=11.93 $Y=110.4275
Rf31	net3#22	net3#3	8.512388	$MET1	$W=3.2e-07
+ $X=11.675 $Y=89.1455
Rf32	net16#52	net16#53	3.709742	$MET1	$W=3.2e-07
+ $X=12.445 $Y=87.5
Rf33	net16#53	net16#54	3.421992	$MET1	$W=3.2e-07
+ $X=12.445 $Y=76.7005
Rf34	net16#52	net16#53	0.416667	$MET1	$W=3.2e-07
+ $X=12.445 $Y=82.4725
Rf35	VDD3A#28	VDD3A#29	2.128031	$MET1	$W=3.2e-07
+ $X=12.63 $Y=129.7145
Rf36	VDD3A#28	VDD3A#27	1.627010	$MET1	$W=3.2e-07
+ $X=12.63 $Y=127.7105
Rf37	VDD3A#27	VDD3A#28	2.500000	$MET1	$W=3.2e-07
+ $X=12.63 $Y=128.43
Rf38	VDD3A#30	VDD3A#31	3.709742	$MET1	$W=3.2e-07
+ $X=12.63 $Y=115.455
Rf39	VDD3A#31	VDD3A#32	2.993680	$MET1	$W=3.2e-07
+ $X=12.63 $Y=105.5455
Rf40	VDD3A#30	VDD3A#31	0.416667	$MET1	$W=3.2e-07
+ $X=12.63 $Y=110.4275
Rf41	BIAS#22	BIAS#3	8.401701	$MET1	$W=3.2e-07
+ $X=12.385 $Y=66.1355
Rf42	net6#24	net6#25	3.709742	$MET1	$W=3.2e-07
+ $X=13.155 $Y=64.72
Rf43	net6#25	net6#26	3.270398	$MET1	$W=3.2e-07
+ $X=13.155 $Y=54.2355
Rf44	net6#24	net6#25	0.416667	$MET1	$W=3.2e-07
+ $X=13.155 $Y=59.6925
Rf45	net3#24	net3#5	8.512388	$MET1	$W=3.2e-07
+ $X=13.215 $Y=89.1455
Rf46	net16	net16#56	3.958279	$MET1	$W=3.2e-07
+ $X=13.4 $Y=118.24
Rf47	net16#56	net16#3	3.991966	$MET1	$W=3.2e-07
+ $X=13.4 $Y=117.09
Rf48	GNDA#1	GNDA#19	5.013042	$MET1	$W=3.2e-07
+ $X=12.86 $Y=28.6695
Rf49	GNDA#19	GNDA#20	1.210344	$MET1	$W=3.2e-07
+ $X=12.86 $Y=37.4045
Rf50	GNDA#20	GNDA#21	1.976438	$MET1	$W=3.2e-07
+ $X=12.86 $Y=39.0945
Rf51	GNDA#18	GNDA#19	0.416667	$MET1	$W=3.2e-07
+ $X=12.86 $Y=33.095
Rf52	GNDA#18	GNDA#20	2.500000	$MET1	$W=3.2e-07
+ $X=12.86 $Y=38.125
Rf53	GNDA#3	GNDA#24	4.147995	$MET1	$W=3.2e-07
+ $X=12.86 $Y=26.9005
Rf54	GNDA#24	GNDA#25	1.209742	$MET1	$W=3.2e-07
+ $X=12.86 $Y=25.358
Rf55	GNDA#25	GNDA#26	2.842086	$MET1	$W=3.2e-07
+ $X=12.86 $Y=16.4755
Rf56	GNDA#23	GNDA#24	2.500000	$MET1	$W=3.2e-07
+ $X=12.86 $Y=26.07
Rf57	GNDA#23	GNDA#25	0.416667	$MET1	$W=3.2e-07
+ $X=12.86 $Y=21.0425
Rf58	net3#26	net3#27	3.709742	$MET1	$W=3.2e-07
+ $X=13.985 $Y=87.5
Rf59	net3#27	net3#28	2.993680	$MET1	$W=3.2e-07
+ $X=13.985 $Y=77.5905
Rf60	net3#26	net3#27	0.416667	$MET1	$W=3.2e-07
+ $X=13.985 $Y=82.4725
Rf61	OUT#8	OUT#9	1.056344	$MET1	$W=3.2e-07
+ $X=14.17 $Y=130.6045
Rf62	OUT#8	OUT#7	1.627010	$MET1	$W=3.2e-07
+ $X=14.17 $Y=127.7105
Rf63	OUT#7	OUT#8	2.500000	$MET1	$W=3.2e-07
+ $X=14.17 $Y=128.43
Rf64	OUT#10	OUT#11	3.709742	$MET1	$W=3.2e-07
+ $X=14.17 $Y=115.455
Rf65	OUT#11	OUT#12	2.778617	$MET1	$W=3.2e-07
+ $X=14.17 $Y=102.8755
Rf66	OUT#10	OUT#11	0.416667	$MET1	$W=3.2e-07
+ $X=14.17 $Y=110.4275
Rf67	BIAS#24	BIAS#5	8.401701	$MET1	$W=3.2e-07
+ $X=13.925 $Y=66.1355
Rf68	GNDA#28	GNDA#29	1.976438	$MET1	$W=3.2e-07
+ $X=14.4 $Y=39.0945
Rf69	GNDA#28	GNDA#27	1.627010	$MET1	$W=3.2e-07
+ $X=14.4 $Y=37.4055
Rf70	GNDA#27	GNDA#28	2.500000	$MET1	$W=3.2e-07
+ $X=14.4 $Y=38.125
Rf71	GNDA#30	GNDA#31	3.709742	$MET1	$W=3.2e-07
+ $X=14.4 $Y=26.07
Rf72	GNDA#31	GNDA#32	2.842086	$MET1	$W=3.2e-07
+ $X=14.4 $Y=16.4755
Rf73	GNDA#30	GNDA#31	0.416667	$MET1	$W=3.2e-07
+ $X=14.4 $Y=21.0425
Rf74	BIAS#26	BIAS#27	3.709742	$MET1	$W=3.2e-07
+ $X=14.695 $Y=64.72
Rf75	BIAS#27	BIAS#28	1.342086	$MET1	$W=3.2e-07
+ $X=14.695 $Y=55.1255
Rf76	BIAS#26	BIAS#27	0.416667	$MET1	$W=3.2e-07
+ $X=14.695 $Y=59.6925
Rf77	VDD3A#34	VDD3A#35	2.128031	$MET1	$W=3.2e-07
+ $X=14.87 $Y=129.7145
Rf78	VDD3A#34	VDD3A#33	1.627010	$MET1	$W=3.2e-07
+ $X=14.87 $Y=127.7105
Rf79	VDD3A#33	VDD3A#34	2.500000	$MET1	$W=3.2e-07
+ $X=14.87 $Y=128.43
Rf80	VDD3A#36	VDD3A#37	3.709742	$MET1	$W=3.2e-07
+ $X=14.87 $Y=115.455
Rf81	VDD3A#37	VDD3A#38	2.993680	$MET1	$W=3.2e-07
+ $X=14.87 $Y=105.5455
Rf82	VDD3A#36	VDD3A#37	0.416667	$MET1	$W=3.2e-07
+ $X=14.87 $Y=110.4275
Rf83	net3#29	net3#7	8.512388	$MET1	$W=3.2e-07
+ $X=14.755 $Y=89.1455
Rf84	GNDA#34	GNDA#35	1.976438	$MET1	$W=3.2e-07
+ $X=15.1 $Y=39.0945
Rf85	GNDA#34	GNDA#33	1.627010	$MET1	$W=3.2e-07
+ $X=15.1 $Y=37.4055
Rf86	GNDA#33	GNDA#34	2.500000	$MET1	$W=3.2e-07
+ $X=15.1 $Y=38.125
Rf87	GNDA#36	GNDA#37	3.709742	$MET1	$W=3.2e-07
+ $X=15.1 $Y=26.07
Rf88	GNDA#37	GNDA#38	2.842086	$MET1	$W=3.2e-07
+ $X=15.1 $Y=16.4755
Rf89	GNDA#36	GNDA#37	0.416667	$MET1	$W=3.2e-07
+ $X=15.1 $Y=21.0425
Rf90	net16#58	net16#59	3.709742	$MET1	$W=3.2e-07
+ $X=15.525 $Y=87.5
Rf91	net16#59	net16#60	1.921992	$MET1	$W=3.2e-07
+ $X=15.525 $Y=76.7005
Rf92	net16#58	net16#59	0.416667	$MET1	$W=3.2e-07
+ $X=15.525 $Y=82.4725
Rf93	BIAS#29	BIAS#7	8.401701	$MET1	$W=3.2e-07
+ $X=15.465 $Y=66.1355
Rf94	net16#5	net16#62	3.958279	$MET1	$W=3.2e-07
+ $X=15.64 $Y=118.24
Rf95	net16#62	net16#7	3.991966	$MET1	$W=3.2e-07
+ $X=15.64 $Y=117.09
Rf96	net6	net6#28	3.868013	$MET1	$W=3.2e-07
+ $X=15.87 $Y=28.155
Rf97	net6#28	net6#3	3.901701	$MET1	$W=3.2e-07
+ $X=15.87 $Y=27.4855
Rf98	net6#30	net6#31	3.709742	$MET1	$W=3.2e-07
+ $X=16.235 $Y=64.72
Rf99	net6#31	net6#32	1.770398	$MET1	$W=3.2e-07
+ $X=16.235 $Y=54.2355
Rf100	net6#30	net6#31	0.416667	$MET1	$W=3.2e-07
+ $X=16.235 $Y=59.6925
Rf101	OUT#14	OUT#15	2.556344	$MET1	$W=3.2e-07
+ $X=16.41 $Y=130.6045
Rf102	OUT#14	OUT#13	1.627010	$MET1	$W=3.2e-07
+ $X=16.41 $Y=127.7105
Rf103	OUT#13	OUT#14	2.500000	$MET1	$W=3.2e-07
+ $X=16.41 $Y=128.43
Rf104	OUT#16	OUT#17	3.709742	$MET1	$W=3.2e-07
+ $X=16.41 $Y=115.455
Rf105	OUT#17	OUT#18	4.278617	$MET1	$W=3.2e-07
+ $X=16.41 $Y=102.8755
Rf106	OUT#16	OUT#17	0.416667	$MET1	$W=3.2e-07
+ $X=16.41 $Y=110.4275
Rf107	net6#34	net6#35	2.833063	$MET1	$W=3.2e-07
+ $X=16.64 $Y=40.8745
Rf108	net6#34	net6#33	1.627010	$MET1	$W=3.2e-07
+ $X=16.64 $Y=37.4055
Rf109	net6#33	net6#34	2.500000	$MET1	$W=3.2e-07
+ $X=16.64 $Y=38.125
Rf110	net2	net2#2	3.709742	$MET1	$W=3.2e-07
+ $X=16.64 $Y=26.07
Rf111	net2#2	net2#3	3.698711	$MET1	$W=3.2e-07
+ $X=16.64 $Y=14.6955
Rf112	net2	net2#2	0.416667	$MET1	$W=3.2e-07
+ $X=16.64 $Y=21.0425
Rf113	VDD3A#40	VDD3A#41	2.128031	$MET1	$W=3.2e-07
+ $X=17.11 $Y=129.7145
Rf114	VDD3A#40	VDD3A#39	1.627010	$MET1	$W=3.2e-07
+ $X=17.11 $Y=127.7105
Rf115	VDD3A#39	VDD3A#40	2.500000	$MET1	$W=3.2e-07
+ $X=17.11 $Y=128.43
Rf116	VDD3A#42	VDD3A#43	3.709742	$MET1	$W=3.2e-07
+ $X=17.11 $Y=115.455
Rf117	VDD3A#43	VDD3A#44	2.993680	$MET1	$W=3.2e-07
+ $X=17.11 $Y=105.5455
Rf118	VDD3A#42	VDD3A#43	0.416667	$MET1	$W=3.2e-07
+ $X=17.11 $Y=110.4275
Rf119	GNDA#40	GNDA#41	1.976438	$MET1	$W=3.2e-07
+ $X=17.34 $Y=39.0945
Rf120	GNDA#40	GNDA#39	1.627010	$MET1	$W=3.2e-07
+ $X=17.34 $Y=37.4055
Rf121	GNDA#39	GNDA#40	2.500000	$MET1	$W=3.2e-07
+ $X=17.34 $Y=38.125
Rf122	GNDA#42	GNDA#43	3.709742	$MET1	$W=3.2e-07
+ $X=17.34 $Y=26.07
Rf123	GNDA#43	GNDA#44	2.842086	$MET1	$W=3.2e-07
+ $X=17.34 $Y=16.4755
Rf124	GNDA#42	GNDA#43	0.416667	$MET1	$W=3.2e-07
+ $X=17.34 $Y=21.0425
Rf125	net16#9	net16#65	3.958279	$MET1	$W=3.2e-07
+ $X=17.88 $Y=118.24
Rf126	net16#65	net16#11	3.991966	$MET1	$W=3.2e-07
+ $X=17.88 $Y=117.09
Rf127	net6#5	net6#37	3.868013	$MET1	$W=3.2e-07
+ $X=18.11 $Y=28.155
Rf128	net6#37	net6#7	3.901701	$MET1	$W=3.2e-07
+ $X=18.11 $Y=27.4855
Rf129	net16#68	net16#69	2.984656	$MET1	$W=3.2e-07
+ $X=18.65 $Y=131.4945
Rf130	net16#68	net16#67	1.627010	$MET1	$W=3.2e-07
+ $X=18.65 $Y=127.7105
Rf131	net16#67	net16#68	2.500000	$MET1	$W=3.2e-07
+ $X=18.65 $Y=128.43
Rf132	net14	net14#2	3.709742	$MET1	$W=3.2e-07
+ $X=18.65 $Y=115.455
Rf133	net14#2	net14#3	1.921992	$MET1	$W=3.2e-07
+ $X=18.65 $Y=104.6555
Rf134	net14	net14#2	0.416667	$MET1	$W=3.2e-07
+ $X=18.65 $Y=110.4275
Rf135	net2#5	net2#6	2.404750	$MET1	$W=3.2e-07
+ $X=18.88 $Y=39.9845
Rf136	net2#5	net2#4	1.627010	$MET1	$W=3.2e-07
+ $X=18.88 $Y=37.4055
Rf137	net2#4	net2#5	2.500000	$MET1	$W=3.2e-07
+ $X=18.88 $Y=38.125
Rf138	net6#39	net6#40	3.709742	$MET1	$W=3.2e-07
+ $X=18.88 $Y=26.07
Rf139	net6#40	net6#41	3.270398	$MET1	$W=3.2e-07
+ $X=18.88 $Y=15.5855
Rf140	net6#39	net6#40	0.416667	$MET1	$W=3.2e-07
+ $X=18.88 $Y=21.0425
Rf141	VDD3A#46	VDD3A#47	2.128031	$MET1	$W=3.2e-07
+ $X=19.35 $Y=129.7145
Rf142	VDD3A#46	VDD3A#45	1.627010	$MET1	$W=3.2e-07
+ $X=19.35 $Y=127.7105
Rf143	VDD3A#45	VDD3A#46	2.500000	$MET1	$W=3.2e-07
+ $X=19.35 $Y=128.43
Rf144	VDD3A#48	VDD3A#49	3.709742	$MET1	$W=3.2e-07
+ $X=19.35 $Y=115.455
Rf145	VDD3A#49	VDD3A#50	2.993680	$MET1	$W=3.2e-07
+ $X=19.35 $Y=105.5455
Rf146	VDD3A#48	VDD3A#49	0.416667	$MET1	$W=3.2e-07
+ $X=19.35 $Y=110.4275
Rf147	GNDA#46	GNDA#47	1.976438	$MET1	$W=3.2e-07
+ $X=19.58 $Y=39.0945
Rf148	GNDA#46	GNDA#45	1.627010	$MET1	$W=3.2e-07
+ $X=19.58 $Y=37.4055
Rf149	GNDA#45	GNDA#46	2.500000	$MET1	$W=3.2e-07
+ $X=19.58 $Y=38.125
Rf150	GNDA#48	GNDA#49	3.709742	$MET1	$W=3.2e-07
+ $X=19.58 $Y=26.07
Rf151	GNDA#49	GNDA#50	2.842086	$MET1	$W=3.2e-07
+ $X=19.58 $Y=16.4755
Rf152	GNDA#48	GNDA#49	0.416667	$MET1	$W=3.2e-07
+ $X=19.58 $Y=21.0425
Rf153	net16#13	net16#71	3.958279	$MET1	$W=3.2e-07
+ $X=20.12 $Y=118.24
Rf154	net16#71	net16#15	3.991966	$MET1	$W=3.2e-07
+ $X=20.12 $Y=117.09
Rf155	net6#9	net6#43	3.868013	$MET1	$W=3.2e-07
+ $X=20.35 $Y=28.155
Rf156	net6#43	net6#11	3.901701	$MET1	$W=3.2e-07
+ $X=20.35 $Y=27.4855
Rf157	OUT#20	OUT#21	2.556344	$MET1	$W=3.2e-07
+ $X=20.89 $Y=130.6045
Rf158	OUT#20	OUT#19	1.627010	$MET1	$W=3.2e-07
+ $X=20.89 $Y=127.7105
Rf159	OUT#19	OUT#20	2.500000	$MET1	$W=3.2e-07
+ $X=20.89 $Y=128.43
Rf160	OUT#22	OUT#23	3.709742	$MET1	$W=3.2e-07
+ $X=20.89 $Y=115.455
Rf161	OUT#23	OUT#24	4.278617	$MET1	$W=3.2e-07
+ $X=20.89 $Y=102.8755
Rf162	OUT#22	OUT#23	0.416667	$MET1	$W=3.2e-07
+ $X=20.89 $Y=110.4275
Rf163	net1#2	net1#3	1.761375	$MET1	$W=3.2e-07
+ $X=21.12 $Y=41.7645
Rf164	net1#2	net1	1.627010	$MET1	$W=3.2e-07
+ $X=21.12 $Y=37.4055
Rf165	net1	net1#2	2.500000	$MET1	$W=3.2e-07
+ $X=21.12 $Y=38.125
Rf166	net7	net7#2	3.709742	$MET1	$W=3.2e-07
+ $X=21.12 $Y=26.07
Rf167	net7#2	net7#3	2.627023	$MET1	$W=3.2e-07
+ $X=21.12 $Y=13.8055
Rf168	net7	net7#2	0.416667	$MET1	$W=3.2e-07
+ $X=21.12 $Y=21.0425
Rf169	VDD3A#52	VDD3A#53	2.128031	$MET1	$W=3.2e-07
+ $X=21.59 $Y=129.7145
Rf170	VDD3A#52	VDD3A#51	1.627010	$MET1	$W=3.2e-07
+ $X=21.59 $Y=127.7105
Rf171	VDD3A#51	VDD3A#52	2.500000	$MET1	$W=3.2e-07
+ $X=21.59 $Y=128.43
Rf172	VDD3A#54	VDD3A#55	3.709742	$MET1	$W=3.2e-07
+ $X=21.59 $Y=115.455
Rf173	VDD3A#55	VDD3A#56	2.993680	$MET1	$W=3.2e-07
+ $X=21.59 $Y=105.5455
Rf174	VDD3A#54	VDD3A#55	0.416667	$MET1	$W=3.2e-07
+ $X=21.59 $Y=110.4275
Rf175	GNDA#52	GNDA#53	1.976438	$MET1	$W=3.2e-07
+ $X=21.82 $Y=39.0945
Rf176	GNDA#52	GNDA#51	1.627010	$MET1	$W=3.2e-07
+ $X=21.82 $Y=37.4055
Rf177	GNDA#51	GNDA#52	2.500000	$MET1	$W=3.2e-07
+ $X=21.82 $Y=38.125
Rf178	GNDA#54	GNDA#55	3.709742	$MET1	$W=3.2e-07
+ $X=21.82 $Y=26.07
Rf179	GNDA#55	GNDA#56	2.842086	$MET1	$W=3.2e-07
+ $X=21.82 $Y=16.4755
Rf180	GNDA#54	GNDA#55	0.416667	$MET1	$W=3.2e-07
+ $X=21.82 $Y=21.0425
Rf181	net2#7	net2#8	3.709742	$MET1	$W=3.2e-07
+ $X=22.46 $Y=64.86
Rf182	net2#8	net2#9	1.342086	$MET1	$W=3.2e-07
+ $X=22.46 $Y=55.2655
Rf183	net2#7	net2#8	0.416667	$MET1	$W=3.2e-07
+ $X=22.46 $Y=59.8325
Rf184	net16#17	net16#74	3.958279	$MET1	$W=3.2e-07
+ $X=22.36 $Y=118.24
Rf185	net16#74	net16#19	3.991966	$MET1	$W=3.2e-07
+ $X=22.36 $Y=117.09
Rf186	net6#13	net6#46	3.868013	$MET1	$W=3.2e-07
+ $X=22.59 $Y=28.155
Rf187	net6#46	net6#15	3.901701	$MET1	$W=3.2e-07
+ $X=22.59 $Y=27.4855
Rf188	OUT#26	OUT#27	2.556344	$MET1	$W=3.2e-07
+ $X=23.13 $Y=130.6045
Rf189	OUT#26	OUT#25	1.627010	$MET1	$W=3.2e-07
+ $X=23.13 $Y=127.7105
Rf190	OUT#25	OUT#26	2.500000	$MET1	$W=3.2e-07
+ $X=23.13 $Y=128.43
Rf191	OUT#28	OUT#29	3.709742	$MET1	$W=3.2e-07
+ $X=23.13 $Y=115.455
Rf192	OUT#29	OUT#30	4.278617	$MET1	$W=3.2e-07
+ $X=23.13 $Y=102.8755
Rf193	OUT#28	OUT#29	0.416667	$MET1	$W=3.2e-07
+ $X=23.13 $Y=110.4275
Rf194	net14#4	net14#5	3.709742	$MET1	$W=3.2e-07
+ $X=23.17 $Y=87.5
Rf195	net14#5	net14#6	1.493680	$MET1	$W=3.2e-07
+ $X=23.17 $Y=77.5905
Rf196	net14#4	net14#5	0.416667	$MET1	$W=3.2e-07
+ $X=23.17 $Y=82.4725
Rf197	net6#49	net6#50	1.333063	$MET1	$W=3.2e-07
+ $X=23.36 $Y=40.8745
Rf198	net6#49	net6#48	1.627010	$MET1	$W=3.2e-07
+ $X=23.36 $Y=37.4055
Rf199	net6#48	net6#49	2.500000	$MET1	$W=3.2e-07
+ $X=23.36 $Y=38.125
Rf200	net2#10	net2#11	3.709742	$MET1	$W=3.2e-07
+ $X=23.36 $Y=26.07
Rf201	net2#11	net2#12	2.198711	$MET1	$W=3.2e-07
+ $X=23.36 $Y=14.6955
Rf202	net2#10	net2#11	0.416667	$MET1	$W=3.2e-07
+ $X=23.36 $Y=21.0425
Rf203	BIAS#31	BIAS#9	8.368013	$MET1	$W=3.2e-07
+ $X=23.23 $Y=66.2055
Rf204	VDD3A#58	VDD3A#59	2.128031	$MET1	$W=3.2e-07
+ $X=23.83 $Y=129.7145
Rf205	VDD3A#58	VDD3A#57	1.627010	$MET1	$W=3.2e-07
+ $X=23.83 $Y=127.7105
Rf206	VDD3A#57	VDD3A#58	2.500000	$MET1	$W=3.2e-07
+ $X=23.83 $Y=128.43
Rf207	VDD3A#60	VDD3A#61	3.709742	$MET1	$W=3.2e-07
+ $X=23.83 $Y=115.455
Rf208	VDD3A#61	VDD3A#62	2.993680	$MET1	$W=3.2e-07
+ $X=23.83 $Y=105.5455
Rf209	VDD3A#60	VDD3A#61	0.416667	$MET1	$W=3.2e-07
+ $X=23.83 $Y=110.4275
Rf210	net3#31	net3#32	3.709742	$MET1	$W=3.2e-07
+ $X=24 $Y=64.86
Rf211	net3#32	net3#33	1.770398	$MET1	$W=3.2e-07
+ $X=24 $Y=54.3755
Rf212	net3#31	net3#32	0.416667	$MET1	$W=3.2e-07
+ $X=24 $Y=59.8325
Rf213	GNDA#58	GNDA#59	1.976438	$MET1	$W=3.2e-07
+ $X=24.06 $Y=39.0945
Rf214	GNDA#58	GNDA#57	1.627010	$MET1	$W=3.2e-07
+ $X=24.06 $Y=37.4055
Rf215	GNDA#57	GNDA#58	2.500000	$MET1	$W=3.2e-07
+ $X=24.06 $Y=38.125
Rf216	GNDA#60	GNDA#61	3.709742	$MET1	$W=3.2e-07
+ $X=24.06 $Y=26.07
Rf217	GNDA#61	GNDA#62	2.842086	$MET1	$W=3.2e-07
+ $X=24.06 $Y=16.4755
Rf218	GNDA#60	GNDA#61	0.416667	$MET1	$W=3.2e-07
+ $X=24.06 $Y=21.0425
Rf219	net3#9	net3#35	6.241966	$MET1	$W=3.2e-07
+ $X=23.94 $Y=89.135
Rf220	A#9	A#10	3.709742	$MET1	$W=3.2e-07
+ $X=24.71 $Y=87.5
Rf221	A#10	A#11	1.921992	$MET1	$W=3.2e-07
+ $X=24.71 $Y=76.7005
Rf222	A#9	A#10	0.416667	$MET1	$W=3.2e-07
+ $X=24.71 $Y=82.4725
Rf223	net16#21	net16#77	3.958279	$MET1	$W=3.2e-07
+ $X=24.6 $Y=118.24
Rf224	net16#77	net16#23	3.991966	$MET1	$W=3.2e-07
+ $X=24.6 $Y=117.09
Rf225	BIAS#33	BIAS#11	8.368013	$MET1	$W=3.2e-07
+ $X=24.77 $Y=66.2055
Rf226	net6#17	net6#52	3.868013	$MET1	$W=3.2e-07
+ $X=24.83 $Y=28.155
Rf227	net6#52	net6#19	3.901701	$MET1	$W=3.2e-07
+ $X=24.83 $Y=27.4855
Rf228	net14#8	net14#9	1.912969	$MET1	$W=3.2e-07
+ $X=25.37 $Y=132.3845
Rf229	net14#8	net14#7	1.627010	$MET1	$W=3.2e-07
+ $X=25.37 $Y=127.7105
Rf230	net14#7	net14#8	2.500000	$MET1	$W=3.2e-07
+ $X=25.37 $Y=128.43
Rf231	net16#79	net16#80	3.709742	$MET1	$W=3.2e-07
+ $X=25.37 $Y=115.455
Rf232	net16#80	net16#81	3.850305	$MET1	$W=3.2e-07
+ $X=25.37 $Y=103.7655
Rf233	net16#79	net16#80	0.416667	$MET1	$W=3.2e-07
+ $X=25.37 $Y=110.4275
Rf234	net2#13	net2#14	3.709742	$MET1	$W=3.2e-07
+ $X=25.54 $Y=64.86
Rf235	net2#14	net2#15	2.842086	$MET1	$W=3.2e-07
+ $X=25.54 $Y=55.2655
Rf236	net2#13	net2#14	0.416667	$MET1	$W=3.2e-07
+ $X=25.54 $Y=59.8325
Rf237	net2#17	net2#18	0.904750	$MET1	$W=3.2e-07
+ $X=25.6 $Y=39.9845
Rf238	net2#17	net2#16	1.627010	$MET1	$W=3.2e-07
+ $X=25.6 $Y=37.4055
Rf239	net2#16	net2#17	2.500000	$MET1	$W=3.2e-07
+ $X=25.6 $Y=38.125
Rf240	net6#54	net6#55	3.709742	$MET1	$W=3.2e-07
+ $X=25.6 $Y=26.07
Rf241	net6#55	net6#56	1.770398	$MET1	$W=3.2e-07
+ $X=25.6 $Y=15.5855
Rf242	net6#54	net6#55	0.416667	$MET1	$W=3.2e-07
+ $X=25.6 $Y=21.0425
[...]
C4205	net14#26	GNDA	1.66109e-18	$X=44.883 $Y=132.299
C4206	net14#29	GNDA	2.77419e-18	$X=44.188 $Y=104.9585
C4207	VDD3A#255	GNDA	1.22555e-18	$X=44.489 $Y=129.971
C4208	VDD3A#273	GNDA	1.26569e-17	$X=44.451 $Y=106.032
C4209	net15#151	GNDA	5.538e-18	$X=43.183 $Y=41.822
C4210	net15#160	GNDA	8.32982e-18	$X=41.9775 $Y=26.631
C4211	net15#165	GNDA	1.29875e-18	$X=42.3585 $Y=13.4545
C4212	A#122	GNDA	4.67662e-18	$X=37.7425 $Y=81.8275
C4213	A#108	GNDA	4.67662e-18	$X=40.0475 $Y=60.585
C4214	net15#141	GNDA	2.91971e-18	$X=40.112 $Y=85.3255
C4215	net15#146	GNDA	8.10651e-18	$X=40.967 $Y=58.8615
C4216	net7#10	GNDA	1.74517e-17	$X=32.4015 $Y=26.185
C4217	net1#6	GNDA	1.06746e-17	$X=31.353 $Y=46.7645
C4218	VDD3A#297	GNDA	1.66109e-18	$X=25.827 $Y=140.104
C4219	net14#24	GNDA	4.31568e-17	$X=23.618 $Y=81.296
C4220	net2#24	GNDA	6.4137e-18	$X=21.8505 $Y=52.775
C4221	net16#109	GNDA	3.34849e-18	$X=7.831 $Y=77.3275
C4222	net2#28	GNDA	1.1595e-17	$X=9.872 $Y=39.9505
C4223	net2#31	GNDA	5.21659e-18	$X=9.5335 $Y=15.042
C4224	VDD3A#272	GNDA	1.15297e-18	$X=7.79 $Y=129.9735
C4225	VDD3A#290	GNDA	1.40761e-18	$X=7.7505 $Y=106.033
C4226	net6#68	GNDA	2.94522e-20	$X=6.194 $Y=43.5825
C4227	net6#65	GNDA	2.91068e-18	$X=8.671 $Y=14.4605
C4228	net16#112	GNDA	3.49691e-18	$X=7.418 $Y=133.036
C4229	net16#128	GNDA	2.10911e-17	$X=8.338 $Y=99.3285
C4230	net23#55	GNDA	8.09676e-18	$X=296.4155 $Y=37.223
C4231	net9#3	GNDA	2.39092e-20	$X=296.7445 $Y=11.097
C4232	net11#55	GNDA	7.58359e-18	$X=208.73 $Y=98.248
C4233	OUT#64	GNDA	1.85616e-18	$X=118.944 $Y=133.638
C4234	OUT#66	GNDA	5.24376e-18	$X=118.0575 $Y=90.809
C4235	VDD3A#235	GNDA	6.91185e-18	$X=111.7275 $Y=139.6915
C4236	VDD3A#163	GNDA	2.02093e-18	$X=112.373 $Y=50.41
C4237	net21#10	GNDA	3.45898e-19	$X=107.4935 $Y=130.2715
C4238	A#89	GNDA	7.59633e-18	$X=104.075 $Y=85.5395
C4239	A#94	GNDA	7.59633e-18	$X=104.075 $Y=58.3685
C4240	net12#10	GNDA	1.42567e-17	$X=100.7305 $Y=122.758
C4241	net17#64	GNDA	8.85074e-18	$X=101.0455 $Y=114.226
C4242	net21#6	GNDA	6.91185e-18	$X=100.514 $Y=136.1055
C4243	OUT#62	GNDA	2.495e-17	$X=101.197 $Y=102.19
C4244	net15#136	GNDA	5.538e-18	$X=101.3115 $Y=41.847
C4245	net17#62	GNDA	4.09641e-18	$X=99.7925 $Y=13.654
C4246	net7#9	GNDA	2.2617e-17	$X=100.2305 $Y=125.779
C4247	net17#59	GNDA	1.76704e-17	$X=99.3715 $Y=114.2265
C4248	net10#18	GNDA	5.89639e-18	$X=99.191 $Y=124.2785
C4249	A#81	GNDA	2.91971e-18	$X=98.9315 $Y=85.539
C4250	A#84	GNDA	8.2188e-18	$X=98.981 $Y=60.523
C4251	OUT#59	GNDA	2.35855e-17	$X=102.1015 $Y=135.9315
C4252	net15#126	GNDA	5.29909e-18	$X=99.3575 $Y=59.34
C4253	net17#54	GNDA	1.76704e-17	$X=97.8315 $Y=114.2265
C4254	net7#6	GNDA	8.3464e-18	$X=97.818 $Y=125.804
C4255	net15#129	GNDA	3.16491e-18	$X=99.9675 $Y=26.3965
C4256	OUT#57	GNDA	2.495e-17	$X=97.09 $Y=103.618
C4257	net17#52	GNDA	8.81969e-18	$X=93.389 $Y=109.052
C4258	net11#53	GNDA	1.18167e-17	$X=97.558 $Y=72.432
C4259	net23#52	GNDA	3.21414e-17	$X=112.7215 $Y=70.3135
C4260	net17#50	GNDA	1.78221e-17	$X=94.201 $Y=40.288
C4261	net15#123	GNDA	9.20604e-18	$X=95.734 $Y=14.8525
C4262	A#78	GNDA	5.29909e-18	$X=92.802 $Y=60.523
C4263	net15#113	GNDA	1.40089e-17	$X=95.165 $Y=88.649
C4264	net17#47	GNDA	1.89529e-17	$X=92.4765 $Y=58.153
C4265	net11#49	GNDA	1.35546e-17	$X=90.1815 $Y=72.1595
C4266	net12#7	GNDA	3.29981e-19	$X=88.417 $Y=123.2985
C4267	net23#48	GNDA	1.84126e-17	$X=89.004 $Y=71.7495
C4268	net15#110	GNDA	3.692e-18	$X=87.5425 $Y=41.8445
C4269	net17#44	GNDA	4.09641e-18	$X=87.566 $Y=13.6555
C4270	A#69	GNDA	2.91971e-18	$X=86.542 $Y=85.539
C4271	A#72	GNDA	8.2188e-18	$X=86.5635 $Y=60.523
C4272	VDD3A#154	GNDA	3.6537e-18	$X=85.1785 $Y=139.64
C4273	net15#100	GNDA	1.31135e-17	$X=85.8925 $Y=59.3385
C4274	net10#11	GNDA	3.43975e-18	$X=84.032 $Y=124.4945
C4275	net11#45	GNDA	1.80056e-17	$X=83.8415 $Y=72.432
C4276	net23#44	GNDA	2.37179e-17	$X=82.919 $Y=71.477
C4277	net17#38	GNDA	1.10097e-17	$X=81.303 $Y=40.287
C4278	net15#97	GNDA	2.25041e-18	$X=81.3255 $Y=14.8415
C4279	A#66	GNDA	5.29909e-18	$X=80.3245 $Y=60.523
C4280	net15#87	GNDA	2.91971e-18	$X=79.6305 $Y=88.652
C4281	net17#35	GNDA	1.60332e-17	$X=79.6575 $Y=58.152
C4282	net11#41	GNDA	2.2914e-17	$X=77.702 $Y=72.1595
C4283	net23#40	GNDA	1.84126e-17	$X=76.5245 $Y=71.7495
C4284	net15#84	GNDA	3.692e-18	$X=75.065 $Y=41.8445
C4285	net17#32	GNDA	4.09641e-18	$X=75.09 $Y=13.6555
C4286	A#57	GNDA	2.91971e-18	$X=74.063 $Y=85.539
C4287	A#60	GNDA	8.2188e-18	$X=74.0855 $Y=60.523
C4288	net15#74	GNDA	1.31135e-17	$X=73.4165 $Y=59.3385
C4289	net11#37	GNDA	1.80056e-17	$X=71.362 $Y=72.432
C4290	net11#33	GNDA	5.86284e-18	$X=71.169 $Y=134.698
C4291	net23#36	GNDA	2.37179e-17	$X=70.4395 $Y=71.477
C4292	net17#26	GNDA	1.10097e-17	$X=68.826 $Y=40.287
C4293	net15#71	GNDA	2.25041e-18	$X=68.8495 $Y=14.8415
C4294	net1#5	GNDA	1.16341e-18	$X=68.0605 $Y=108.611
C4295	A#54	GNDA	5.29909e-18	$X=67.847 $Y=60.523
C4296	net15#61	GNDA	2.91971e-18	$X=67.153 $Y=88.652
C4297	net17#23	GNDA	1.60332e-17	$X=67.1815 $Y=58.152
C4298	net11#30	GNDA	1.35546e-17	$X=65.2225 $Y=72.1595
C4299	net23#32	GNDA	1.84126e-17	$X=64.045 $Y=71.7495
C4300	net15#58	GNDA	3.692e-18	$X=61.502 $Y=41.8465
C4301	net17#20	GNDA	9.9576e-18	$X=59.879 $Y=13.6715
C4302	net20#6	GNDA	3.37713e-18	$X=61.277 $Y=109.1285
C4303	A#45	GNDA	2.91971e-18	$X=61.5845 $Y=85.539
C4304	A#48	GNDA	8.2188e-18	$X=61.608 $Y=60.523
C4305	net15#48	GNDA	1.31135e-17	$X=60.165 $Y=59.3395
C4306	VDD3A#117	GNDA	2.58741e-18	$X=59.8835 $Y=131.418
C4307	net11#26	GNDA	1.80056e-17	$X=58.8825 $Y=72.432
C4308	net23#28	GNDA	1.58942e-17	$X=57.96 $Y=71.477
C4309	net17#14	GNDA	1.00557e-17	$X=53.7405 $Y=40.293
C4310	net15#45	GNDA	5.3309e-18	$X=56.1615 $Y=14.843
C4311	A#42	GNDA	5.29909e-18	$X=55.3695 $Y=60.523
C4312	net15#35	GNDA	5.83942e-18	$X=54.2685 $Y=88.6515
C4313	net17#11	GNDA	1.40489e-17	$X=52.869 $Y=58.1555
C4314	net11#22	GNDA	4.34566e-17	$X=49.6165 $Y=72.1595
C4315	net23#24	GNDA	1.86367e-17	$X=48.7285 $Y=71.7495
C4316	A#33	GNDA	2.91971e-18	$X=49.0765 $Y=85.3965
C4317	A#36	GNDA	8.2188e-18	$X=49.101 $Y=61.6705
C4318	A#27	GNDA	2.91971e-18	$X=48.67 $Y=85.539
C4319	A#30	GNDA	8.2188e-18	$X=48.6075 $Y=60.5235
C4320	A#19	GNDA	7.59633e-18	$X=43.329 $Y=85.5395
C4321	A#24	GNDA	7.59633e-18	$X=43.329 $Y=58.3685
C4322	VDD3A#109	GNDA	1.02122e-17	$X=41.0845 $Y=130.8935
C4323	VDD3A#114	GNDA	1.32639e-17	$X=41.0845 $Y=104.3615
C4324	VDD3A#101	GNDA	1.15358e-17	$X=39.433 $Y=130.893
C4325	VDD3A#104	GNDA	2.73046e-18	$X=39.488 $Y=106.5115
C4326	OUT#51	GNDA	5.34728e-18	$X=39.564 $Y=132.447
C4327	OUT#54	GNDA	1.4311e-17	$X=39.358 $Y=102.9495
C4328	net16#104	GNDA	2.30939e-18	$X=40.3015 $Y=117.679
C4329	VDD3A#95	GNDA	2.53857e-18	$X=37.2825 $Y=130.8925
C4330	VDD3A#98	GNDA	8.56002e-18	$X=37.3085 $Y=106.5115
C4331	OUT#45	GNDA	1.66946e-18	$X=36.309 $Y=132.449
C4332	OUT#48	GNDA	5.45063e-18	$X=36.439 $Y=102.95
C4333	VDD3A#89	GNDA	2.53857e-18	$X=35.0425 $Y=130.8925
C4334	net14#21	GNDA	4.27993e-18	$X=34.6075 $Y=135.5565
C4335	net16#99	GNDA	2.49154e-17	$X=36.0085 $Y=104.1295
C4336	VDD3A#83	GNDA	2.53857e-18	$X=32.8025 $Y=130.8925
C4337	OUT#39	GNDA	2.49066e-18	$X=32.3895 $Y=132.449
C4338	OUT#42	GNDA	5.45063e-18	$X=32.333 $Y=102.95
C4339	VDD3A#77	GNDA	2.53857e-18	$X=30.563 $Y=130.8925
C4340	VDD3A#80	GNDA	2.73046e-18	$X=30.589 $Y=106.5115
C4341	OUT#33	GNDA	5.59309e-18	$X=29.315 $Y=132.448
C4342	OUT#36	GNDA	6.23041e-18	$X=29.539 $Y=102.9495
C4343	net14#18	GNDA	1.3583e-17	$X=29.3575 $Y=78.56
C4344	net3#44	GNDA	3.08279e-18	$X=28.8755 $Y=89.639
C4345	net2#21	GNDA	7.37312e-18	$X=28.4885 $Y=56.343
C4346	VDD3A#71	GNDA	2.53857e-18	$X=28.323 $Y=130.8925
C4347	BIAS#37	GNDA	9.64353e-18	$X=27.986 $Y=66.492
C4348	A#14	GNDA	1.48057e-17	$X=28.674 $Y=77.373
C4349	net16#87	GNDA	1.20344e-17	$X=31.7485 $Y=133.9845
C4350	net14#15	GNDA	2.22009e-17	$X=28.418 $Y=105.319
C4351	net3#42	GNDA	1.10072e-18	$X=27.0235 $Y=89.639
C4352	net3#40	GNDA	7.49085e-18	$X=28.27 $Y=57.8165
C4353	BIAS#35	GNDA	1.80892e-19	$X=26.3125 $Y=66.492
C4354	net14#12	GNDA	4.98424e-18	$X=26.2785 $Y=79.7085
C4355	VDD3A#65	GNDA	2.53857e-18	$X=26.083 $Y=130.8925
C4356	net3#37	GNDA	1.12287e-18	$X=25.4835 $Y=89.639
C4357	net2#18	GNDA	7.98924e-18	$X=26.9755 $Y=41.603
C4358	net6#56	GNDA	1.08212e-17	$X=26.5665 $Y=16.381
C4359	net14#9	GNDA	9.96665e-18	$X=21.5525 $Y=135.5415
C4360	net16#81	GNDA	1.29305e-17	$X=24.6405 $Y=104.1315
C4361	net6#52	GNDA	1.18609e-17	$X=26.913 $Y=27.8395
C4362	A#11	GNDA	7.27958e-18	$X=24.5575 $Y=77.3735
C4363	VDD3A#59	GNDA	2.53857e-18	$X=23.843 $Y=130.8925
C4364	net6#50	GNDA	1.9962e-17	$X=25.308 $Y=43.1615
C4365	net2#12	GNDA	1.33624e-17	$X=24.716 $Y=15.198
C4366	net14#6	GNDA	5.79242e-18	$X=23.2115 $Y=78.56
C4367	OUT#27	GNDA	2.77302e-18	$X=23.7155 $Y=132.448
C4368	OUT#30	GNDA	5.45063e-18	$X=23.567 $Y=102.9495
C4369	net6#46	GNDA	6.98153e-18	$X=22.594 $Y=27.8375
C4370	VDD3A#53	GNDA	2.53857e-18	$X=21.603 $Y=130.8925
C4371	net1#3	GNDA	9.97795e-18	$X=18.824 $Y=44.7215
C4372	net7#3	GNDA	1.83011e-17	$X=19.813 $Y=14.018
C4373	OUT#21	GNDA	4.52608e-18	$X=20.63 $Y=132.449
C4374	OUT#24	GNDA	5.45063e-18	$X=20.7615 $Y=102.95
C4375	net6#43	GNDA	7.09258e-18	$X=20.354 $Y=27.8375
C4376	VDD3A#47	GNDA	2.53857e-18	$X=19.3635 $Y=130.8925
C4377	net2#6	GNDA	9.68353e-18	$X=18.5965 $Y=41.601
C4378	net6#41	GNDA	1.69946e-17	$X=18.591 $Y=16.378
C4379	net16#69	GNDA	1.95923e-18	$X=18.293 $Y=133.999
C4380	net14#3	GNDA	9.61192e-18	$X=17.264 $Y=105.3165
C4381	net6#37	GNDA	6.98153e-18	$X=18.114 $Y=27.8375
C4382	VDD3A#41	GNDA	2.53857e-18	$X=17.1235 $Y=130.8925
C4383	net6#35	GNDA	1.09218e-17	$X=16.4145 $Y=43.1585
C4384	net2#3	GNDA	1.37413e-17	$X=16.6805 $Y=15.1905
C4385	OUT#15	GNDA	5.34728e-18	$X=16.7105 $Y=132.449
C4386	OUT#18	GNDA	5.45063e-18	$X=16.656 $Y=102.95
C4387	net6#32	GNDA	5.95688e-18	$X=16.1095 $Y=55.0165
C4388	net6#28	GNDA	6.69603e-18	$X=15.1455 $Y=27.838
C4389	VDD3A#35	GNDA	2.53857e-18	$X=14.8835 $Y=130.8925
C4390	VDD3A#38	GNDA	2.73046e-18	$X=14.911 $Y=106.5115
C4391	net3#29	GNDA	2.35913e-18	$X=15.6875 $Y=89.656
C4392	BIAS#28	GNDA	7.85804e-18	$X=14.83 $Y=56.203
C4393	OUT#9	GNDA	5.91318e-18	$X=12.237 $Y=132.4425
C4394	OUT#12	GNDA	5.82956e-18	$X=12.9395 $Y=102.947
C4395	net3#28	GNDA	7.27958e-18	$X=17.543 $Y=76.8175
C4396	net16#56	GNDA	4.82759e-18	$X=12.777 $Y=117.6805
C4397	net6#26	GNDA	1.44434e-18	$X=13.203 $Y=55.017
C4398	VDD3A#29	GNDA	2.72567e-18	$X=12.6315 $Y=130.7515
C4399	VDD3A#32	GNDA	1.15908e-17	$X=12.6595 $Y=107.661
C4400	net16#54	GNDA	7.96858e-18	$X=12.528 $Y=77.3735
C4401	VDD3A#23	GNDA	8.98661e-18	$X=12.208 $Y=130.8925
C4402	VDD3A#26	GNDA	2.73046e-18	$X=12.1485 $Y=106.511
C4403	net3#22	GNDA	1.09282e-18	$X=11.678 $Y=89.6565
C4404	BIAS#21	GNDA	1.09368e-20	$X=11.643 $Y=57.2455
C4405	net3#21	GNDA	1.37463e-17	$X=9.8125 $Y=78.5595
C4406	BIAS#17	GNDA	2.24715e-19	$X=9.6825 $Y=64.8825
C4407	VDD3A#15	GNDA	6.26677e-18	$X=10.3755 $Y=130.8935
C4408	VDD3A#20	GNDA	8.99723e-18	$X=10.3755 $Y=104.3615
C4409	net3#17	GNDA	3.08829e-19	$X=8.3255 $Y=88
C4410	A#7	GNDA	3.88622e-18	$X=101.8425 $Y=69.8615
C4411	net17#7	GNDA	9.86274e-18	$X=100.918 $Y=112.937
C4412	net17#5	GNDA	1.65424e-17	$X=99.378 $Y=112.937
C4413	OUT#1	GNDA	1.47707e-17	$X=98.4685 $Y=135.021
C4414	net17#3	GNDA	1.65395e-17	$X=97.838 $Y=112.937
C4415	net23#15	GNDA	2.96575e-18	$X=95.575 $Y=70.2265
C4416	net17	GNDA	9.85833e-18	$X=96.298 $Y=112.937
C4417	net23#13	GNDA	4.45094e-18	$X=89.3245 $Y=74.69
C4418	net11#13	GNDA	2.96575e-18	$X=88.8225 $Y=69.8615
C4419	net23#11	GNDA	2.96575e-18	$X=83.098 $Y=70.2265
C4420	net10	GNDA	1.08158e-17	$X=81.628 $Y=135.3965
C4421	net23#9	GNDA	4.45094e-18	$X=76.8465 $Y=74.69
C4422	net11#9	GNDA	2.96575e-18	$X=76.3445 $Y=69.8615
C4423	net23#7	GNDA	2.96575e-18	$X=70.6205 $Y=70.2265
C4424	net20#3	GNDA	8.03037e-18	$X=68.451 $Y=119.2985
C4425	net23#5	GNDA	4.45094e-18	$X=64.3685 $Y=74.69
C4426	net11#5	GNDA	2.96575e-18	$X=63.867 $Y=69.8615
C4427	net23#3	GNDA	2.96575e-18	$X=58.143 $Y=70.2265
C4428	VDD3A#5	GNDA	1.50944e-17	$X=40.5955 $Y=121.0435
C4429	VDD3A#7	GNDA	1.46899e-17	$X=40.3255 $Y=115.854
C4430	net16#45	GNDA	8.9187e-18	$X=38.0505 $Y=119.313
C4431	net16#47	GNDA	8.9187e-18	$X=38.0505 $Y=115.959
C4432	net16#41	GNDA	5.45063e-18	$X=35.8105 $Y=119.313
C4433	net16#43	GNDA	1.29305e-17	$X=35.8105 $Y=115.959
C4434	net16#37	GNDA	5.45063e-18	$X=33.5705 $Y=119.313
C4435	net16#39	GNDA	5.45063e-18	$X=33.5705 $Y=115.959
C4436	net16#33	GNDA	5.45063e-18	$X=31.3305 $Y=119.313
C4437	net16#35	GNDA	5.45063e-18	$X=31.3305 $Y=115.959
C4438	net16#29	GNDA	7.47989e-18	$X=29.0905 $Y=119.313
C4439	net16#31	GNDA	1.29305e-17	$X=29.091 $Y=115.959
C4440	net3#15	GNDA	1.60794e-17	$X=28.571 $Y=88.005
C4441	net3#13	GNDA	2.02054e-17	$X=27.031 $Y=88.005
C4442	net16#27	GNDA	1.29305e-17	$X=26.851 $Y=115.959
C4443	BIAS#13	GNDA	8.14213e-18	$X=26.3205 $Y=65.2935
C4444	net3#11	GNDA	1.25779e-17	$X=25.491 $Y=88.005
C4445	net6#17	GNDA	9.07554e-18	$X=24.8405 $Y=29.0665
C4446	net6#19	GNDA	2.60859e-18	$X=24.8405 $Y=26.5225
C4447	BIAS#11	GNDA	7.27958e-18	$X=24.7805 $Y=65.2935
C4448	net16#21	GNDA	5.45063e-18	$X=24.611 $Y=119.313
C4449	net16#23	GNDA	5.45063e-18	$X=24.611 $Y=115.959
C4450	net3#9	GNDA	7.41718e-18	$X=23.951 $Y=88.005
C4451	net6#13	GNDA	1.37392e-17	$X=22.6005 $Y=29.0665
C4452	net6#15	GNDA	1.41166e-17	$X=22.601 $Y=26.5225
C4453	net16#17	GNDA	5.45063e-18	$X=22.371 $Y=119.313
C4454	net16#19	GNDA	5.45063e-18	$X=22.371 $Y=115.959
C4455	net6#9	GNDA	5.45063e-18	$X=20.361 $Y=29.0665
C4456	net6#11	GNDA	1.29305e-17	$X=20.361 $Y=26.5225
C4457	net16#13	GNDA	7.47989e-18	$X=20.131 $Y=119.313
C4458	net16#15	GNDA	5.45063e-18	$X=20.131 $Y=115.959
C4459	net6#5	GNDA	6.25933e-18	$X=18.121 $Y=29.0665
C4460	net6#7	GNDA	6.63673e-18	$X=18.121 $Y=26.5225
C4461	net16#11	GNDA	5.45063e-18	$X=17.891 $Y=115.959
C4462	net6	GNDA	7.04628e-18	$X=15.881 $Y=29.0665
C4463	net6#3	GNDA	8.05922e-18	$X=15.881 $Y=26.5225
C4464	net16#5	GNDA	5.45063e-18	$X=15.651 $Y=119.313
C4465	net16#7	GNDA	5.45063e-18	$X=15.6515 $Y=115.959
C4466	net3#7	GNDA	1.54582e-17	$X=14.7665 $Y=88.0075
C4467	net16#3	GNDA	5.45063e-18	$X=13.4115 $Y=115.959
C4468	net3#5	GNDA	7.27958e-18	$X=13.2265 $Y=88.0075
C4469	net3#3	GNDA	9.46488e-18	$X=11.6865 $Y=88.0075
C4470	VDD3A#1	GNDA	1.46899e-17	$X=11.1365 $Y=119.4005
C4471	VDD3A#3	GNDA	1.46899e-17	$X=11.1365 $Y=115.854
C4472	net17#96	GNDA	9.96511e-18	$X=146.702 $Y=28.095
C4473	VDD3A#236	GNDA	6.30594e-18	$X=138.838 $Y=23.21
C4474	VDD3A#233	GNDA	7.33426e-20	$X=112.4515 $Y=134.572
C4475	net22#3	GNDA	4.1924e-19	$X=112.452 $Y=131.151
C4476	net21#7	GNDA	7.33426e-20	$X=112.452 $Y=127.631
C4477	VDD3A#157	GNDA	8.66326e-18	$X=96.106 $Y=68.5065
C4478	net15#134	GNDA	9.71467e-18	$X=99.992 $Y=34.0365
C4479	net17#48	GNDA	3.54916e-18	$X=93.7515 $Y=33.8885
C4480	net15#108	GNDA	9.36385e-18	$X=87.5135 $Y=34.0365
C4481	net17#36	GNDA	3.54916e-18	$X=81.2735 $Y=33.8885
C4482	net15#82	GNDA	9.36385e-18	$X=75.0355 $Y=34.0365
C4483	net17#24	GNDA	3.54916e-18	$X=68.795 $Y=33.8885
C4484	net15#56	GNDA	9.36385e-18	$X=62.557 $Y=34.0365
C4485	net17#12	GNDA	3.54916e-18	$X=56.3165 $Y=33.8885
C4486	VDD3A#176	GNDA	3.45941e-17	$X=18.6905 $Y=81.928
C4487	net2#16	GNDA	1.67619e-17	$X=25.631 $Y=35.2175
C4488	net6#48	GNDA	1.61879e-17	$X=23.3935 $Y=35.366
C4489	net2#7	GNDA	3.28673e-18	$X=22.5055 $Y=60.545
C4490	net1	GNDA	2.48309e-17	$X=21.156 $Y=35.515
C4491	net2#4	GNDA	7.90149e-18	$X=18.912 $Y=35.2175
C4492	net6#33	GNDA	2.84805e-18	$X=16.6745 $Y=35.366
C4493	net6#24	GNDA	3.96154e-18	$X=13.1735 $Y=60.405
C4494	BIAS#19	GNDA	4.02095e-18	$X=11.6335 $Y=60.405
C4495	net6#21	GNDA	2.77308e-18	$X=10.1215 $Y=60.405
C4496	A#85	GNDA	7.92208e-19	$X=104.5165 $Y=78.764
C4497	A#90	GNDA	7.92208e-19	$X=104.555 $Y=66.2705
C4498	A#79	GNDA	5.29909e-18	$X=99.0355 $Y=80.0655
C4499	net17#55	GNDA	5.29909e-18	$X=98.317 $Y=80.214
C4500	A#73	GNDA	5.29909e-18	$X=92.796 $Y=80.0655
C4501	net15#111	GNDA	5.28979e-18	$X=92.0795 $Y=80.362
C4502	A#67	GNDA	5.29909e-18	$X=86.557 $Y=80.0655
C4503	net17#39	GNDA	5.28979e-18	$X=85.8385 $Y=80.214
C4504	A#61	GNDA	5.29909e-18	$X=80.318 $Y=80.0655
C4505	net15#85	GNDA	5.28979e-18	$X=79.6015 $Y=80.362
C4506	A#55	GNDA	5.29909e-18	$X=74.0785 $Y=80.0655
C4507	net17#27	GNDA	5.28979e-18	$X=73.3605 $Y=80.214
C4508	A#49	GNDA	5.29909e-18	$X=67.8395 $Y=80.0655
C4509	net15#59	GNDA	5.28979e-18	$X=67.123 $Y=80.362
C4510	A#43	GNDA	5.29909e-18	$X=61.6 $Y=80.0655
C4511	net17#15	GNDA	5.28979e-18	$X=60.882 $Y=80.214
C4512	A#37	GNDA	5.29909e-18	$X=55.361 $Y=80.0655
C4513	net15#33	GNDA	5.28979e-18	$X=54.645 $Y=80.362
C4514	A#25	GNDA	5.29909e-18	$X=48.402 $Y=80.0655
C4515	A#16	GNDA	7.92208e-19	$X=42.883 $Y=80.0345
C4516	A#21	GNDA	7.92208e-19	$X=42.883 $Y=66.271
C4517	VDD3A#105	GNDA	7.92208e-19	$X=41.0345 $Y=124.1165
C4518	VDD3A#110	GNDA	1.05914e-18	$X=41.0785 $Y=112.2595
C4519	OUT#49	GNDA	1.4311e-17	$X=38.84 $Y=125.5625
C4520	VDD3A#93	GNDA	5.82956e-18	$X=37.3185 $Y=125.4145
C4521	OUT#43	GNDA	5.45063e-18	$X=36.6005 $Y=125.5625
C4522	net14#19	GNDA	5.45063e-18	$X=34.3645 $Y=125.8585
C4523	net16#85	GNDA	1.29305e-17	$X=27.6435 $Y=125.7105
C4524	net14#10	GNDA	4.68292e-18	$X=26.2675 $Y=83.1835
C4525	net14#7	GNDA	1.20241e-17	$X=25.406 $Y=125.8585
C4526	A#9	GNDA	4.68292e-18	$X=24.7275 $Y=83.1835
C4527	net14#4	GNDA	3.27805e-18	$X=23.2155 $Y=83.1835
C4528	net16#67	GNDA	1.29305e-17	$X=18.685 $Y=125.7105
C4529	OUT#7	GNDA	5.82956e-18	$X=14.2035 $Y=125.5625
C4530	VDD3A#27	GNDA	8.86036e-18	$X=12.6815 $Y=125.4145
C4531	net16#52	GNDA	1.46459e-23	$X=12.4635 $Y=83.1835
C4532	VDD3A#12	GNDA	1.19668e-18	$X=10.4425 $Y=125.3835
C4533	VDD3A#17	GNDA	1.05914e-18	$X=10.4425 $Y=112.26
C4534	net16#49	GNDA	1.02664e-18	$X=9.4115 $Y=83.1835
C4535	net11#20	GNDA	9.35938e-18	$X=53.344 $Y=70.689
C4536	net11#24	GNDA	5.30535e-18	$X=59.4585 $Y=73.3165
C4537	net11#35	GNDA	5.30535e-18	$X=71.938 $Y=73.3165
C4538	net11#39	GNDA	9.35938e-18	$X=78.3035 $Y=70.689
C4539	net11#43	GNDA	5.30535e-18	$X=84.418 $Y=73.3165
C4540	net11#51	GNDA	5.30535e-18	$X=96.8975 $Y=73.3165
C4541	VDD3A#224	GNDA	7.42414e-18	$X=35.303 $Y=80.593
C4542	VDD3A#232	GNDA	1.42261e-17	$X=111.0455 $Y=90.499
C4543	VDD3A#175	GNDA	7.25667e-19	$X=33.077 $Y=73.221
C4544	VDD3A#203	GNDA	5.78229e-19	$X=49.65 $Y=97.399
C4545	VDD3A#204	GNDA	8.37965e-18	$X=37.852 $Y=91.6855
C4546	net21#9	GNDA	1.85616e-18	$X=109.532 $Y=129.739
C4547	net9#8	GNDA	2.49315e-16	$X=308.564 $Y=131.3875
C4548	net9#14	GNDA	2.91002e-16	$X=308.565 $Y=114.948
C4549	net9#20	GNDA	2.91002e-16	$X=308.565 $Y=98.2265
C4550	net9#26	GNDA	2.91002e-16	$X=308.565 $Y=81.5045
C4551	net9#32	GNDA	2.91002e-16	$X=308.565 $Y=64.783
C4552	net9#38	GNDA	2.91002e-16	$X=308.565 $Y=48.061
C4553	net9#44	GNDA	2.91002e-16	$X=308.565 $Y=31.3395
C4554	net9#50	GNDA	2.08139e-16	$X=308.574 $Y=15.088
C4555	net9#55	GNDA	2.49315e-16	$X=325.202 $Y=131.4005
C4556	net9#61	GNDA	2.91002e-16	$X=325.2025 $Y=114.9575
C4557	net9#67	GNDA	2.91002e-16	$X=325.2025 $Y=98.2325
C4558	net9#73	GNDA	4.36503e-16	$X=325.205 $Y=80.1115
C4559	net9#79	GNDA	4.36503e-16	$X=325.205 $Y=49.4545
C4560	net9#85	GNDA	2.91002e-16	$X=325.2025 $Y=31.331
C4561	net9#97	GNDA	2.49315e-16	$X=341.815 $Y=131.3915
C4562	net9#102	GNDA	2.91002e-16	$X=341.815 $Y=114.9515
C4563	net9#107	GNDA	2.91002e-16	$X=341.815 $Y=98.2285
C4564	net9#112	GNDA	2.91002e-16	$X=341.815 $Y=81.5055
C4565	net9#117	GNDA	2.91002e-16	$X=341.815 $Y=64.783
C4566	net9#122	GNDA	2.91002e-16	$X=341.815 $Y=48.06
C4567	net9#127	GNDA	2.91002e-16	$X=341.815 $Y=31.337
C4568	net9#139	GNDA	2.49315e-16	$X=356.737 $Y=131.2875
C4569	net9#145	GNDA	2.91002e-16	$X=356.7365 $Y=114.979
C4570	net9#151	GNDA	2.91002e-16	$X=356.7365 $Y=98.245
C4571	net9#157	GNDA	2.91002e-16	$X=356.7365 $Y=81.511
C4572	net9#163	GNDA	2.91002e-16	$X=356.7365 $Y=64.7775
C4573	net9#169	GNDA	2.91002e-16	$X=356.7365 $Y=48.0435
C4574	net9#175	GNDA	2.91002e-16	$X=356.7365 $Y=31.3095
C4575	net9#181	GNDA	2.74513e-16	$X=356.7345 $Y=14.639
C4576	net20#21	GNDA	1.31696e-17	$X=62.4875 $Y=109.1715
C4577	net10#21	GNDA	3.62567e-18	$X=93.9645 $Y=121.611
C4578	VDD3A#294	GNDA	9.9276e-18	$X=75.428 $Y=139.8115
C4579	OUT#86	GNDA	1.05686e-18	$X=115.6615 $Y=106.3665
C4580	net9#193	GNDA	3.09312e-16	$X=341.103 $Y=14.6695
C4581	net9#194	GNDA	3.09325e-16	$X=324.3585 $Y=14.669
C4582	net9#195	GNDA	1.10931e-16	$X=307.604 $Y=7.6365
C4583	net11#88	GNDA	7.58359e-18	$X=208.7255 $Y=96.587
C4584	net17#253	GNDA	1.08832e-18	$X=128.791 $Y=11.112
*
*
.ENDS bandgap_su
*
