*
*
*
*                       LINUX           Mon Aug 26 08:16:33 2024
*
*
*
*  PROGRAM  advgen
*
*  Name           : advgen - Quantus - (64-bit)
*  Version        : 23.1.1-p051
*  Build Date     : Thu Feb 15 21:11:17 PST 2024
*
*  HSPICE LIBRARY
*
* GLOBAL_TEMPERATURE 27
*  OPERATING_TEMPERATURE 27
*  QRC_TECH_DIR /pkg/xfab2/XKIT/xh018/cadence/v9_0/QRC_pvs/v9_0_1/XH018_1143/QRC-Typ 
*
*!LENGTH_UNITS METERS
*
*
*

*
.SUBCKT bandgap_su BIAS GNDA OUT VDD3A
*
*
*  caps2d version: 10
*
*
*       TRANSISTOR CARDS
*
*
MMM29@2	GNDA#294	GNDA#20	GNDA#273	GNDA	ne3	L=5e-06
+ W=1e-05
+ AD=4.8e-12	AS=4.8e-12	PD=2.096e-05	PS=2.096e-05
+ NRD=0.0173	NRS=0.0173
MMM29	GNDA#303	GNDA#23	GNDA#280	GNDA	ne3	L=5e-06
+ W=1e-05
+ AD=4.8e-12	AS=4.8e-12	PD=2.096e-05	PS=2.096e-05
+ NRD=0.0173	NRS=0.0173
MMM4@6	net15#210	net15#44	GNDA#253	GNDA	ne3	L=5e-06
+ W=1e-05
+ AD=4.8e-12	AS=4.8e-12	PD=2.096e-05	PS=2.096e-05
+ NRD=0.0173	NRS=0.0173
MMM2@4	net17#120	net15#47	GNDA#260	GNDA	ne3	L=5e-06
+ W=1e-05
+ AD=4.8e-12	AS=4.8e-12	PD=2.096e-05	PS=2.096e-05
+ NRD=0.0173	NRS=0.0173
MMM2	net17#90	net15#38	GNDA#239	GNDA	ne3	L=5e-06
+ W=1e-05
+ AD=4.8e-12	AS=4.8e-12	PD=2.096e-05	PS=2.096e-05
+ NRD=0.0173	NRS=0.0173
MMM4@1	net15#189	net15#41	GNDA#246	GNDA	ne3	L=5e-06
+ W=1e-05
+ AD=4.8e-12	AS=4.8e-12	PD=2.096e-05	PS=2.096e-05
+ NRD=0.0173	NRS=0.0173
MMM4@3	net15#168	net15#32	GNDA#225	GNDA	ne3	L=5e-06
+ W=1e-05
+ AD=4.8e-12	AS=4.8e-12	PD=2.096e-05	PS=2.096e-05
+ NRD=0.0173	NRS=0.0173
MMM2@6	net17#78	net15#35	GNDA#232	GNDA	ne3	L=5e-06
+ W=1e-05
+ AD=4.8e-12	AS=4.8e-12	PD=2.096e-05	PS=2.096e-05
+ NRD=0.0173	NRS=0.0173
MMM2@3	net17#66	net15#26	GNDA#211	GNDA	ne3	L=5e-06
+ W=1e-05
+ AD=4.8e-12	AS=4.8e-12	PD=2.096e-05	PS=2.096e-05
+ NRD=0.0173	NRS=0.0173
MMM4	net15#147	net15#29	GNDA#218	GNDA	ne3	L=5e-06
+ W=1e-05
+ AD=4.8e-12	AS=4.8e-12	PD=2.096e-05	PS=2.096e-05
+ NRD=0.0173	NRS=0.0173
MMM4@4	net15#126	net15#20	GNDA#197	GNDA	ne3	L=5e-06
+ W=1e-05
+ AD=4.8e-12	AS=4.8e-12	PD=2.096e-05	PS=2.096e-05
+ NRD=0.0173	NRS=0.0173
MMM2@5	net17#54	net15#23	GNDA#204	GNDA	ne3	L=5e-06
+ W=1e-05
+ AD=4.8e-12	AS=4.8e-12	PD=2.096e-05	PS=2.096e-05
+ NRD=0.0173	NRS=0.0173
MMM2@7	net17#42	net15#14	GNDA#183	GNDA	ne3	L=5e-06
+ W=1e-05
+ AD=4.8e-12	AS=4.8e-12	PD=2.096e-05	PS=2.096e-05
+ NRD=0.0173	NRS=0.0173
MMM4@2	net15#105	net15#17	GNDA#190	GNDA	ne3	L=5e-06
+ W=1e-05
+ AD=4.8e-12	AS=4.8e-12	PD=2.096e-05	PS=2.096e-05
+ NRD=0.0173	NRS=0.0173
MMM4@7	net15#84	net15#8	GNDA#169	GNDA	ne3	L=5e-06
+ W=1e-05
+ AD=4.8e-12	AS=4.8e-12	PD=2.096e-05	PS=2.096e-05
+ NRD=0.0173	NRS=0.0173
MMM2@1	net17#30	net15#11	GNDA#176	GNDA	ne3	L=5e-06
+ W=1e-05
+ AD=4.8e-12	AS=4.8e-12	PD=2.096e-05	PS=2.096e-05
+ NRD=0.0173	NRS=0.0173
MMM2@2	net17#18	net15#2	GNDA#155	GNDA	ne3	L=5e-06
+ W=1e-05
+ AD=4.8e-12	AS=4.8e-12	PD=2.096e-05	PS=2.096e-05
+ NRD=0.0173	NRS=0.0173
MMM4@5	net15#63	net15#5	GNDA#162	GNDA	ne3	L=5e-06
+ W=1e-05
+ AD=4.8e-12	AS=4.8e-12	PD=2.096e-05	PS=2.096e-05
+ NRD=0.0173	NRS=0.0173
MMM29@3	GNDA#141	GNDA#14	GNDA#123	GNDA	ne3	L=5e-06
+ W=1e-05
+ AD=4.8e-12	AS=4.8e-12	PD=2.096e-05	PS=2.096e-05
+ NRD=0.0173	NRS=0.0173
MMM29@1	GNDA#148	GNDA#17	GNDA#132	GNDA	ne3	L=5e-06
+ W=1e-05
+ AD=4.8e-12	AS=4.8e-12	PD=2.096e-05	PS=2.096e-05
+ NRD=0.0173	NRS=0.0173
MMM24	VDD3A#247	VDD3A#14	net22#12	GNDA	ne3	L=2e-06
+ W=1e-06
+ AD=4.8e-13	AS=4.8e-13	PD=2.96e-06	PS=2.96e-06
+ NRD=0.173	NRS=0.173
MMM23	net22#4	net22#2	net21#23	GNDA	ne3	L=2e-06
+ W=1e-06
+ AD=4.8e-13	AS=4.8e-13	PD=2.96e-06	PS=2.96e-06
+ NRD=0.173	NRS=0.173
MMM25	net21#13	net21#5	GNDA#412	GNDA	ne3	L=2e-06
+ W=1e-06
+ AD=4.8e-13	AS=4.8e-13	PD=2.96e-06	PS=2.96e-06
+ NRD=0.173	NRS=0.173
MMM17	net12#15	net21#2	net7#13	GNDA	ne3	L=1e-06
+ W=1e-05
+ AD=4.8e-12	AS=4.8e-12	PD=2.096e-05	PS=2.096e-05
+ NRD=0.0173	NRS=0.0173
MMM16	net10#26	OUT#2	net7#8	GNDA	ne3	L=1e-06	W=1e-05
+ AD=4.8e-12	AS=4.8e-12	PD=2.096e-05	PS=2.096e-05
+ NRD=0.0173	NRS=0.0173
MMM26@2	GNDA#111	GNDA#8	GNDA#101	GNDA	ne3	L=1e-06
+ W=1e-05
+ AD=4.8e-12	AS=4.8e-12	PD=2.096e-05	PS=2.096e-05
+ NRD=0.0173	NRS=0.0173
MMM26@1	GNDA#118	GNDA#11	GNDA#106	GNDA	ne3	L=1e-06
+ W=1e-05
+ AD=4.8e-12	AS=4.8e-12	PD=2.096e-05	PS=2.096e-05
+ NRD=0.0173	NRS=0.0173
MMM8@1	net2#28	net6#26	GNDA#91	GNDA	ne3	L=1e-06
+ W=1e-05
+ AD=4.8e-12	AS=4.8e-12	PD=2.096e-05	PS=2.096e-05
+ NRD=0.0173	NRS=0.0173
MMM7@2	net6#98	net6#29	GNDA#96	GNDA	ne3	L=1e-06
+ W=1e-05
+ AD=4.8e-12	AS=4.8e-12	PD=2.096e-05	PS=2.096e-05
+ NRD=0.0173	NRS=0.0173
MMM7	net6#86	net6#20	GNDA#81	GNDA	ne3	L=1e-06
+ W=1e-05
+ AD=4.8e-12	AS=4.8e-12	PD=2.096e-05	PS=2.096e-05
+ NRD=0.0173	NRS=0.0173
MMM8	net2#18	net6#23	GNDA#86	GNDA	ne3	L=1e-06
+ W=1e-05
+ AD=4.8e-12	AS=4.8e-12	PD=2.096e-05	PS=2.096e-05
+ NRD=0.0173	NRS=0.0173
MMM14	net1#3	net6#14	GNDA#71	GNDA	ne3	L=1e-06
+ W=1e-05
+ AD=4.8e-12	AS=4.8e-12	PD=2.096e-05	PS=2.096e-05
+ NRD=0.0173	NRS=0.0173
MMM15	net7#3	net6#17	GNDA#76	GNDA	ne3	L=1e-06
+ W=1e-05
+ AD=4.8e-12	AS=4.8e-12	PD=2.096e-05	PS=2.096e-05
+ NRD=0.0173	NRS=0.0173
MMM8@3	net2#8	net6#8	GNDA#61	GNDA	ne3	L=1e-06	W=1e-05
+ AD=4.8e-12	AS=4.8e-12	PD=2.096e-05	PS=2.096e-05
+ NRD=0.0173	NRS=0.0173
MMM7@3	net6#67	net6#11	GNDA#66	GNDA	ne3	L=1e-06
+ W=1e-05
+ AD=4.8e-12	AS=4.8e-12	PD=2.096e-05	PS=2.096e-05
+ NRD=0.0173	NRS=0.0173
MMM7@1	net6#55	net6#2	GNDA#51	GNDA	ne3	L=1e-06
+ W=1e-05
+ AD=4.8e-12	AS=4.8e-12	PD=2.096e-05	PS=2.096e-05
+ NRD=0.0173	NRS=0.0173
MMM8@2	net2#3	net6#5	GNDA#56	GNDA	ne3	L=1e-06	W=1e-05
+ AD=4.8e-12	AS=4.8e-12	PD=2.096e-05	PS=2.096e-05
+ NRD=0.0173	NRS=0.0173
MMM26	GNDA#41	GNDA#2	GNDA#27	GNDA	ne3	L=1e-06
+ W=1e-05
+ AD=4.8e-12	AS=4.8e-12	PD=2.096e-05	PS=2.096e-05
+ NRD=0.0173	NRS=0.0173
MMM26@3	GNDA#46	GNDA#5	GNDA#34	GNDA	ne3	L=1e-06
+ W=1e-05
+ AD=4.8e-12	AS=4.8e-12	PD=2.096e-05	PS=2.096e-05
+ NRD=0.0173	NRS=0.0173
MMM13@1	OUT#91	net17#2	GNDA#361	GNDA	ne3	L=1e-06
+ W=1e-05
+ AD=2.7e-12	AS=4.8e-12	PD=1.054e-05	PS=2.096e-05
+ NRD=0.0173	NRS=0.0173
MMM13@2	OUT#91	net17#5	GNDA#270	GNDA	ne3	L=1e-06
+ W=1e-05
+ AD=2.7e-12	AS=2.7e-12	PD=1.054e-05	PS=1.054e-05
+ NRD=0.0173	NRS=0.0173
MMM13	OUT#103	net17#8	GNDA#270	GNDA	ne3	L=1e-06
+ W=1e-05
+ AD=2.7e-12	AS=2.7e-12	PD=1.054e-05	PS=1.054e-05
+ NRD=0.0173	NRS=0.0173
MMM13@3	OUT#103	net17#11	GNDA#290	GNDA	ne3	L=1e-06
+ W=1e-05
+ AD=2.7e-12	AS=4.8e-12	PD=1.054e-05	PS=2.096e-05
+ NRD=0.0173	NRS=0.0173
MMM11@1	net3#57	BIAS#14	net2#13	GNDA	ne3	L=1e-06
+ W=1e-05
+ AD=2.7e-12	AS=4.8e-12	PD=1.054e-05	PS=2.096e-05
+ NRD=0.0173	NRS=0.0173
MMM11@2	net3#57	BIAS#17	net2#23	GNDA	ne3	L=1e-06
+ W=1e-05
+ AD=2.7e-12	AS=2.7e-12	PD=1.054e-05	PS=1.054e-05
+ NRD=0.0173	NRS=0.0173
MMM11	net3#74	BIAS#20	net2#23	GNDA	ne3	L=1e-06
+ W=1e-05
+ AD=2.7e-12	AS=2.7e-12	PD=1.054e-05	PS=1.054e-05
+ NRD=0.0173	NRS=0.0173
MMM11@3	net3#74	BIAS#23	net2#33	GNDA	ne3	L=1e-06
+ W=1e-05
+ AD=2.7e-12	AS=4.8e-12	PD=1.054e-05	PS=2.096e-05
+ NRD=0.0173	NRS=0.0173
MMM9@2	BIAS#32	BIAS#2	net6#33	GNDA	ne3	L=1e-06
+ W=1e-05
+ AD=2.7e-12	AS=4.8e-12	PD=1.054e-05	PS=2.096e-05
+ NRD=0.0173	NRS=0.0173
MMM9	BIAS#32	BIAS#5	net6#38	GNDA	ne3	L=1e-06
+ W=1e-05
+ AD=2.7e-12	AS=2.7e-12	PD=1.054e-05	PS=1.054e-05
+ NRD=0.0173	NRS=0.0173
MMM9@3	BIAS#47	BIAS#8	net6#38	GNDA	ne3	L=1e-06
+ W=1e-05
+ AD=2.7e-12	AS=2.7e-12	PD=1.054e-05	PS=1.054e-05
+ NRD=0.0173	NRS=0.0173
MMM9@1	BIAS#47	BIAS#11	net6#50	GNDA	ne3	L=1e-06
+ W=1e-05
+ AD=2.7e-12	AS=4.8e-12	PD=1.054e-05	PS=2.096e-05
+ NRD=0.0173	NRS=0.0173
MMM27@2	VDD3A#172	VDD3A#8	VDD3A#162	VDD3A	pe3	L=1e-06
+ W=1e-05
+ AD=4.8e-12	AS=4.8e-12	PD=2.096e-05	PS=2.096e-05
+ NRD=0.0173	NRS=0.0173
MMM27	VDD3A#179	VDD3A#11	VDD3A#167	VDD3A	pe3	L=1e-06
+ W=1e-05
+ AD=4.8e-12	AS=4.8e-12	PD=2.096e-05	PS=2.096e-05
+ NRD=0.0173	NRS=0.0173
MMM12	OUT#80	net16#68	VDD3A#152	VDD3A	pe3	L=1e-06
+ W=1e-05
+ AD=4.8e-12	AS=4.8e-12	PD=2.096e-05	PS=2.096e-05
+ NRD=0.0173	NRS=0.0173
MMM12@4	OUT#85	net16#71	VDD3A#157	VDD3A	pe3	L=1e-06
+ W=1e-05
+ AD=4.8e-12	AS=4.8e-12	PD=2.096e-05	PS=2.096e-05
+ NRD=0.0173	NRS=0.0173
MMM12@5	OUT#70	net16#62	VDD3A#142	VDD3A	pe3	L=1e-06
+ W=1e-05
+ AD=4.8e-12	AS=4.8e-12	PD=2.096e-05	PS=2.096e-05
+ NRD=0.0173	NRS=0.0173
MMM12@8	OUT#75	net16#65	VDD3A#147	VDD3A	pe3	L=1e-06
+ W=1e-05
+ AD=4.8e-12	AS=4.8e-12	PD=2.096e-05	PS=2.096e-05
+ NRD=0.0173	NRS=0.0173
MMM10@3	net14#33	net16#56	VDD3A#132	VDD3A	pe3	L=1e-06
+ W=1e-05
+ AD=4.8e-12	AS=4.8e-12	PD=2.096e-05	PS=2.096e-05
+ NRD=0.0173	NRS=0.0173
MMM0@3	net16#195	net16#59	VDD3A#137	VDD3A	pe3	L=1e-06
+ W=1e-05
+ AD=4.8e-12	AS=4.8e-12	PD=2.096e-05	PS=2.096e-05
+ NRD=0.0173	NRS=0.0173
MMM12@1	OUT#60	net16#50	VDD3A#122	VDD3A	pe3	L=1e-06
+ W=1e-05
+ AD=4.8e-12	AS=4.8e-12	PD=2.096e-05	PS=2.096e-05
+ NRD=0.0173	NRS=0.0173
MMM12@7	OUT#65	net16#53	VDD3A#127	VDD3A	pe3	L=1e-06
+ W=1e-05
+ AD=4.8e-12	AS=4.8e-12	PD=2.096e-05	PS=2.096e-05
+ NRD=0.0173	NRS=0.0173
MMM12@2	OUT#50	net16#44	VDD3A#112	VDD3A	pe3	L=1e-06
+ W=1e-05
+ AD=4.8e-12	AS=4.8e-12	PD=2.096e-05	PS=2.096e-05
+ NRD=0.0173	NRS=0.0173
MMM12@10	OUT#55	net16#47	VDD3A#117	VDD3A	pe3	L=1e-06
+ W=1e-05
+ AD=4.8e-12	AS=4.8e-12	PD=2.096e-05	PS=2.096e-05
+ NRD=0.0173	NRS=0.0173
MMM0@1	net16#163	net16#38	VDD3A#102	VDD3A	pe3	L=1e-06
+ W=1e-05
+ AD=4.8e-12	AS=4.8e-12	PD=2.096e-05	PS=2.096e-05
+ NRD=0.0173	NRS=0.0173
MMM10@2	net14#23	net16#41	VDD3A#107	VDD3A	pe3	L=1e-06
+ W=1e-05
+ AD=4.8e-12	AS=4.8e-12	PD=2.096e-05	PS=2.096e-05
+ NRD=0.0173	NRS=0.0173
MMM10	net14#13	net16#32	VDD3A#92	VDD3A	pe3	L=1e-06
+ W=1e-05
+ AD=4.8e-12	AS=4.8e-12	PD=2.096e-05	PS=2.096e-05
+ NRD=0.0173	NRS=0.0173
MMM0	net16#149	net16#35	VDD3A#97	VDD3A	pe3	L=1e-06
+ W=1e-05
+ AD=4.8e-12	AS=4.8e-12	PD=2.096e-05	PS=2.096e-05
+ NRD=0.0173	NRS=0.0173
MMM12@11	OUT#40	net16#26	VDD3A#82	VDD3A	pe3	L=1e-06
+ W=1e-05
+ AD=4.8e-12	AS=4.8e-12	PD=2.096e-05	PS=2.096e-05
+ NRD=0.0173	NRS=0.0173
MMM12@9	OUT#45	net16#29	VDD3A#87	VDD3A	pe3	L=1e-06
+ W=1e-05
+ AD=4.8e-12	AS=4.8e-12	PD=2.096e-05	PS=2.096e-05
+ NRD=0.0173	NRS=0.0173
MMM12@3	OUT#30	net16#20	VDD3A#72	VDD3A	pe3	L=1e-06
+ W=1e-05
+ AD=4.8e-12	AS=4.8e-12	PD=2.096e-05	PS=2.096e-05
+ NRD=0.0173	NRS=0.0173
MMM12@13	OUT#35	net16#23	VDD3A#77	VDD3A	pe3	L=1e-06
+ W=1e-05
+ AD=4.8e-12	AS=4.8e-12	PD=2.096e-05	PS=2.096e-05
+ NRD=0.0173	NRS=0.0173
MMM0@2	net16#117	net16#14	VDD3A#62	VDD3A	pe3	L=1e-06
+ W=1e-05
+ AD=4.8e-12	AS=4.8e-12	PD=2.096e-05	PS=2.096e-05
+ NRD=0.0173	NRS=0.0173
MMM10@1	net14#3	net16#17	VDD3A#67	VDD3A	pe3	L=1e-06
+ W=1e-05
+ AD=4.8e-12	AS=4.8e-12	PD=2.096e-05	PS=2.096e-05
+ NRD=0.0173	NRS=0.0173
MMM12@14	OUT#20	net16#8	VDD3A#52	VDD3A	pe3	L=1e-06
+ W=1e-05
+ AD=4.8e-12	AS=4.8e-12	PD=2.096e-05	PS=2.096e-05
+ NRD=0.0173	NRS=0.0173
MMM12@12	OUT#25	net16#11	VDD3A#57	VDD3A	pe3	L=1e-06
+ W=1e-05
+ AD=4.8e-12	AS=4.8e-12	PD=2.096e-05	PS=2.096e-05
+ NRD=0.0173	NRS=0.0173
MMM12@6	OUT#10	net16#2	VDD3A#42	VDD3A	pe3	L=1e-06
+ W=1e-05
+ AD=4.8e-12	AS=4.8e-12	PD=2.096e-05	PS=2.096e-05
+ NRD=0.0173	NRS=0.0173
MMM12@15	OUT#15	net16#5	VDD3A#47	VDD3A	pe3	L=1e-06
+ W=1e-05
+ AD=4.8e-12	AS=4.8e-12	PD=2.096e-05	PS=2.096e-05
+ NRD=0.0173	NRS=0.0173
MMM27@1	VDD3A#32	VDD3A#2	VDD3A#18	VDD3A	pe3	L=1e-06
+ W=1e-05
+ AD=4.8e-12	AS=4.8e-12	PD=2.096e-05	PS=2.096e-05
+ NRD=0.0173	NRS=0.0173
MMM27@3	VDD3A#37	VDD3A#5	VDD3A#25	VDD3A	pe3	L=1e-06
+ W=1e-05
+ AD=4.8e-12	AS=4.8e-12	PD=2.096e-05	PS=2.096e-05
+ NRD=0.0173	NRS=0.0173
MMM21	net1#6	net12#2	net20#7	VDD3A	pe3	L=5e-06
+ W=1e-05
+ AD=4.8e-12	AS=4.8e-12	PD=2.096e-05	PS=2.096e-05
+ NRD=0.0173	NRS=0.0173
MMM28@3	A#139	A#8	A#129	VDD3A	pe3	L=5e-06	W=1e-05
+ AD=4.8e-12	AS=4.8e-12	PD=2.096e-05	PS=2.096e-05
+ NRD=0.0173	NRS=0.0173
MMM28	A#146	A#11	A#134	VDD3A	pe3	L=5e-06	W=1e-05
+ AD=4.8e-12	AS=4.8e-12	PD=2.096e-05	PS=2.096e-05
+ NRD=0.0173	NRS=0.0173
MMM5@5	net17#111	net11#23	A#119	VDD3A	pe3	L=5e-06
+ W=1e-05
+ AD=4.8e-12	AS=4.8e-12	PD=2.096e-05	PS=2.096e-05
+ NRD=0.0173	NRS=0.0173
MMM3@6	net15#198	net23#23	A#124	VDD3A	pe3	L=5e-06
+ W=1e-05
+ AD=4.8e-12	AS=4.8e-12	PD=2.096e-05	PS=2.096e-05
+ NRD=0.0173	NRS=0.0173
MMM3@1	net15#177	net23#20	A#109	VDD3A	pe3	L=5e-06
+ W=1e-05
+ AD=4.8e-12	AS=4.8e-12	PD=2.096e-05	PS=2.096e-05
+ NRD=0.0173	NRS=0.0173
MMM5@6	net17#87	net11#20	A#114	VDD3A	pe3	L=5e-06
+ W=1e-05
+ AD=4.8e-12	AS=4.8e-12	PD=2.096e-05	PS=2.096e-05
+ NRD=0.0173	NRS=0.0173
MMM19	net12#10	net10#5	VDD3A#208	VDD3A	pe3	L=5e-06
+ W=1e-05
+ AD=4.8e-12	AS=4.8e-12	PD=2.096e-05	PS=2.096e-05
+ NRD=0.0173	NRS=0.0173
MMM5@1	net17#75	net11#17	A#99	VDD3A	pe3	L=5e-06
+ W=1e-05
+ AD=4.8e-12	AS=4.8e-12	PD=2.096e-05	PS=2.096e-05
+ NRD=0.0173	NRS=0.0173
MMM3@5	net15#156	net23#17	A#104	VDD3A	pe3	L=5e-06
+ W=1e-05
+ AD=4.8e-12	AS=4.8e-12	PD=2.096e-05	PS=2.096e-05
+ NRD=0.0173	NRS=0.0173
MMM18	net10#15	net10#2	VDD3A#203	VDD3A	pe3	L=5e-06
+ W=1e-05
+ AD=4.8e-12	AS=4.8e-12	PD=2.096e-05	PS=2.096e-05
+ NRD=0.0173	NRS=0.0173
MMM3@7	net15#135	net23#14	A#89	VDD3A	pe3	L=5e-06
+ W=1e-05
+ AD=4.8e-12	AS=4.8e-12	PD=2.096e-05	PS=2.096e-05
+ NRD=0.0173	NRS=0.0173
MMM5@7	net17#63	net11#14	A#94	VDD3A	pe3	L=5e-06
+ W=1e-05
+ AD=4.8e-12	AS=4.8e-12	PD=2.096e-05	PS=2.096e-05
+ NRD=0.0173	NRS=0.0173
MMM5@2	net17#51	net11#11	A#79	VDD3A	pe3	L=5e-06
+ W=1e-05
+ AD=4.8e-12	AS=4.8e-12	PD=2.096e-05	PS=2.096e-05
+ NRD=0.0173	NRS=0.0173
MMM3@2	net15#114	net23#11	A#84	VDD3A	pe3	L=5e-06
+ W=1e-05
+ AD=4.8e-12	AS=4.8e-12	PD=2.096e-05	PS=2.096e-05
+ NRD=0.0173	NRS=0.0173
MMM22	net11#47	net20#5	VDD3A#191	VDD3A	pe3	L=5e-06
+ W=1e-05
+ AD=4.8e-12	AS=4.8e-12	PD=2.096e-05	PS=2.096e-05
+ NRD=0.0173	NRS=0.0173
MMM3@4	net15#93	net23#8	A#69	VDD3A	pe3	L=5e-06
+ W=1e-05
+ AD=4.8e-12	AS=4.8e-12	PD=2.096e-05	PS=2.096e-05
+ NRD=0.0173	NRS=0.0173
MMM5@4	net17#39	net11#8	A#74	VDD3A	pe3	L=5e-06
+ W=1e-05
+ AD=4.8e-12	AS=4.8e-12	PD=2.096e-05	PS=2.096e-05
+ NRD=0.0173	NRS=0.0173
MMM20	net20#19	net20#2	VDD3A#186	VDD3A	pe3	L=5e-06
+ W=1e-05
+ AD=4.8e-12	AS=4.8e-12	PD=2.096e-05	PS=2.096e-05
+ NRD=0.0173	NRS=0.0173
MMM5@3	net17#27	net11#5	A#59	VDD3A	pe3	L=5e-06
+ W=1e-05
+ AD=4.8e-12	AS=4.8e-12	PD=2.096e-05	PS=2.096e-05
+ NRD=0.0173	NRS=0.0173
MMM3	net15#72	net23#5	A#64	VDD3A	pe3	L=5e-06
+ W=1e-05
+ AD=4.8e-12	AS=4.8e-12	PD=2.096e-05	PS=2.096e-05
+ NRD=0.0173	NRS=0.0173
MMM3@3	net15#51	net23#2	A#49	VDD3A	pe3	L=5e-06
+ W=1e-05
+ AD=4.8e-12	AS=4.8e-12	PD=2.096e-05	PS=2.096e-05
+ NRD=0.0173	NRS=0.0173
MMM5	net17#15	net11#2	A#54	VDD3A	pe3	L=5e-06
+ W=1e-05
+ AD=4.8e-12	AS=4.8e-12	PD=2.096e-05	PS=2.096e-05
+ NRD=0.0173	NRS=0.0173
MMM28@2	A#39	A#2	A#25	VDD3A	pe3	L=5e-06	W=1e-05
+ AD=4.8e-12	AS=4.8e-12	PD=2.096e-05	PS=2.096e-05
+ NRD=0.0173	NRS=0.0173
MMM28@1	A#44	A#5	A#32	VDD3A	pe3	L=5e-06	W=1e-05
+ AD=4.8e-12	AS=4.8e-12	PD=2.096e-05	PS=2.096e-05
+ NRD=0.0173	NRS=0.0173
MMM1@1	A#15	net3#14	net14#8	VDD3A	pe3	L=1e-06
+ W=1e-05
+ AD=2.7e-12	AS=4.8e-12	PD=1.054e-05	PS=2.096e-05
+ NRD=0.0173	NRS=0.0173
MMM1@2	A#15	net3#17	net14#18	VDD3A	pe3	L=1e-06
+ W=1e-05
+ AD=2.7e-12	AS=2.7e-12	PD=1.054e-05	PS=1.054e-05
+ NRD=0.0173	NRS=0.0173
MMM1	A#20	net3#20	net14#18	VDD3A	pe3	L=1e-06
+ W=1e-05
+ AD=2.7e-12	AS=2.7e-12	PD=1.054e-05	PS=1.054e-05
+ NRD=0.0173	NRS=0.0173
MMM1@3	A#20	net3#23	net14#28	VDD3A	pe3	L=1e-06
+ W=1e-05
+ AD=2.7e-12	AS=4.8e-12	PD=1.054e-05	PS=2.096e-05
+ NRD=0.0173	NRS=0.0173
MMM6@1	net3#32	net3#2	net16#75	VDD3A	pe3	L=1e-06
+ W=1e-05
+ AD=2.7e-12	AS=4.8e-12	PD=1.054e-05	PS=2.096e-05
+ NRD=0.0173	NRS=0.0173
MMM6@3	net3#32	net3#5	net16#80	VDD3A	pe3	L=1e-06
+ W=1e-05
+ AD=2.7e-12	AS=2.7e-12	PD=1.054e-05	PS=1.054e-05
+ NRD=0.0173	NRS=0.0173
MMM6	net3#47	net3#8	net16#80	VDD3A	pe3	L=1e-06
+ W=1e-05
+ AD=2.7e-12	AS=2.7e-12	PD=1.054e-05	PS=1.054e-05
+ NRD=0.0173	NRS=0.0173
MMM6@2	net3#47	net3#11	net16#94	VDD3A	pe3	L=1e-06
+ W=1e-05
+ AD=2.7e-12	AS=4.8e-12	PD=1.054e-05	PS=2.096e-05
+ NRD=0.0173	NRS=0.0173
*
*
*       BIPOLAR TRANSISTOR CARDS
*
*
QQQ5	GNDA	GNDA	net9	qpvc3
QQQ5@1	GNDA	GNDA	net9#41	qpvc3
QQQ5@2	GNDA	GNDA	net9#35	qpvc3
QQQ5@3	GNDA	GNDA	net9#29	qpvc3
QQQ5@4	GNDA	GNDA	net9#23	qpvc3
QQQ5@5	GNDA	GNDA	net9#17	qpvc3
QQQ5@6	GNDA	GNDA	net9#11	qpvc3
QQQ5@7	GNDA	GNDA	net9#5	qpvc3
QQQ5@8	GNDA	GNDA	net9#89	qpvc3
QQQ5@9	GNDA	GNDA	net9#83	qpvc3
QQQ5@10	GNDA	GNDA	net9#77	qpvc3
QQQ6	GNDA	GNDA	net11#84	qpvc3
QQQ5@11	GNDA	GNDA	net9#71	qpvc3
QQQ5@12	GNDA	GNDA	net9#65	qpvc3
QQQ5@13	GNDA	GNDA	net9#59	qpvc3
QQQ5@14	GNDA	GNDA	net9#53	qpvc3
QQQ5@15	GNDA	GNDA	net9#137	qpvc3
QQQ5@16	GNDA	GNDA	net9#131	qpvc3
QQQ5@17	GNDA	GNDA	net9#125	qpvc3
QQQ5@18	GNDA	GNDA	net9#119	qpvc3
QQQ5@19	GNDA	GNDA	net9#113	qpvc3
QQQ5@20	GNDA	GNDA	net9#107	qpvc3
QQQ5@21	GNDA	GNDA	net9#101	qpvc3
QQQ5@22	GNDA	GNDA	net9#95	qpvc3
QQQ5@23	GNDA	GNDA	net9#185	qpvc3
QQQ5@24	GNDA	GNDA	net9#179	qpvc3
QQQ5@25	GNDA	GNDA	net9#173	qpvc3
QQQ5@26	GNDA	GNDA	net9#167	qpvc3
QQQ5@27	GNDA	GNDA	net9#161	qpvc3
QQQ5@28	GNDA	GNDA	net9#155	qpvc3
QQQ5@29	GNDA	GNDA	net9#149	qpvc3
QQQ5@30	GNDA	GNDA	net9#95	qpvc3
*
*
*       CANONICAL RESISTOR AND CAP/DIODE CARDS
*
RRR6	net11#25	net8#3	rpp1k1_3 	L=0.00082283	W=4e-06
+ $SUB=GNDA 
RRR8	net23#25	net5#3	rpp1k1_3 	L=0.00082283	W=4e-06
+ $SUB=GNDA 
RRR10	net8	OUT#4	rpp1k1_3 	L=0.00082283	W=4e-06
+ $SUB=GNDA 
RRR11	net5	OUT#6	rpp1k1_3 	L=0.00082283	W=4e-06
+ $SUB=GNDA 
RRR7	net9#2	net23#28	rpp1k1_3 	L=0.0005215	W=8e-06
+ $SUB=GNDA 
*
*       PARASITIC RESISTOR AND CAP/DIODE CARDS
*
Rc5	OUT#163	OUT#165	0.955803	$MET4	$L=1.54995e-05
+ $W=1.16e-06	$X=121.495 $Y=32.215
Rc6	OUT#165	OUT#166	1.853117	$MET4	$L=2.40605e-05
+ $W=9.6e-07	$X=121.545 $Y=39.9645
Rc8	OUT#166	OUT#109	1.519679	$MET4	$L=2.16947e-05
+ $W=9.6e-07	$X=118.685 $Y=64.025
Rd2	net6#113	net6#124	0.801329	$MET3	$L=1.581e-05
+ $W=1.46e-06	$X=7.24 $Y=43.665
Rd3	net6#124	net6#111	0.718205	$MET3	$L=1.417e-05
+ $W=1.46e-06	$X=7.24 $Y=27.855
Rd6	net16#225	net16#246	0.856575	$MET3	$L=1.69e-05
+ $W=1.46e-06	$X=5.84 $Y=134.6
Rd7	net16#246	net16#243	0.863671	$MET3	$L=1.704e-05
+ $W=1.46e-06	$X=5.84 $Y=117.7
Rd8	net16#243	net16#216	1.325652	$MET3	$L=2.61747e-05
+ $W=1.46e-06	$X=5.84 $Y=100.66
Rd12	net2#48	net2#42	1.519534	$MET3	$L=2.998e-05
+ $W=1.46e-06	$X=9.02 $Y=11.905
Rd14	net2#42	net2#36	0.572233	$MET3	$L=1.133e-05
+ $W=1.46e-06	$X=14.685 $Y=48.315
Rd18	GNDA#702	GNDA	0.930286	$MET3	$L=2.464e-05
+ $W=1.96e-06	$X=29.65 $Y=40.105
Rd25	GNDA	GNDA#702	0.930286	$MET3	$L=2.464e-05
+ $W=1.96e-06	$X=11.05 $Y=15.465
Rd28	A#167	A#151	1.036755	$MET3	$L=2.746e-05	$W=1.96e-06
+ $X=40.315 $Y=85.685
Rd31	net15#222	net15#228	1.238367	$MET3	$L=3.28e-05
+ $W=1.96e-06	$X=38.035 $Y=89.245
Rd35	net15#228	net15#257	0.599929	$MET3	$L=1.589e-05
+ $W=1.96e-06	$X=40.42 $Y=42.29
Rd36	net15#257	net15#250	0.534990	$MET3	$L=1.417e-05
+ $W=1.96e-06	$X=40.42 $Y=26.4
Rd42	VDD3A	VDD3A#275	1.012592	$MET3	$L=2.682e-05
+ $W=1.96e-06	$X=7.87 $Y=131.04
Rd45	VDD3A	VDD3A#275	1.012592	$MET3	$L=2.682e-05
+ $W=1.96e-06	$X=43.57 $Y=131.04
Rd50	net14#36	net14#55	1.019527	$MET3	$L=2.0155e-05
+ $W=1.46e-06	$X=20.685 $Y=76.26
Rd51	net14#55	net14#47	1.260788	$MET3	$L=2.4915e-05
+ $W=1.46e-06	$X=33.1425 $Y=96.415
Rd53	net14#47	net14#42	1.720247	$MET3	$L=3.469e-05
+ $W=1.46e-06	$X=45.6 $Y=102.44
Rd54	net1#18	net1#10	1.828205	$MET3	$L=3.607e-05
+ $W=1.46e-06	$X=31.68 $Y=27.41
Rd55	net1#10	net1#20	2.445560	$MET3	$L=4.82702e-05
+ $W=1.46e-06	$X=31.68 $Y=45.445
Rd56	net1#20	net1#14	1.767380	$MET3	$L=3.489e-05
+ $W=1.46e-06	$X=49.125 $Y=93.715
Rd59	net7#24	net7#28	2.368507	$MET3	$L=4.677e-05
+ $W=1.46e-06	$X=56.845 $Y=91.575
Rd60	net7#28	net7#18	4.127286	$MET3	$L=8.22002e-05
+ $W=1.46e-06	$X=33.46 $Y=91.575
Rd62	OUT#148	OUT#121	1.819238	$MET3	$L=4.81852e-05
+ $W=1.96e-06	$X=72.222 $Y=99.35
Rd64	OUT#121	OUT#111	1.718260	$MET3	$L=3.394e-05
+ $W=1.46e-06	$X=47.38 $Y=99.24
Rd67	A#167	A#151	1.036755	$MET3	$L=2.746e-05	$W=1.96e-06
+ $X=107.055 $Y=85.685
Rd71	GNDA#320	GNDA#753	1.076389	$MET3	$L=2.85298e-05
+ $W=1.96e-06	$X=56.965 $Y=8.065
Rd73	GNDA#320	GNDA#753	1.076407	$MET3	$L=2.85303e-05
+ $W=1.96e-06	$X=93.755 $Y=8.065
Rd75	GNDA#753	GNDA#737	0.933306	$MET3	$L=2.472e-05
+ $W=1.96e-06	$X=108.02 $Y=14.01
Rd77	GNDA#753	GNDA#737	0.933306	$MET3	$L=2.472e-05
+ $W=1.96e-06	$X=42.7 $Y=14.01
Rd82	net11#88	net11#123	1.725822	$MET3	$L=3.409e-05
+ $W=1.46e-06	$X=74.7 $Y=136.13
Rd83	net11#123	net11#124	1.932616	$MET3	$L=3.817e-05
+ $W=1.46e-06	$X=93.785 $Y=102.04
Rd84	net11#124	net11#125	1.472156	$MET3	$L=2.94653e-05
+ $W=1.46e-06	$X=112.87 $Y=102.04
Rd86	net17#159	net17#138	1.238367	$MET3	$L=3.28e-05
+ $W=1.96e-06	$X=109.335 $Y=87.465
Rd90	net17#138	net17#150	1.133914	$MET3	$L=3.006e-05
+ $W=1.96e-06	$X=110.3 $Y=40.51
Rd101	net11#80	net11#131	4.298589	$MET3	$L=8.485e-05
+ $W=1.46e-06	$X=253.395 $Y=93.01
Rd102	net11#131	net11#132	1.260281	$MET3	$L=2.4905e-05
+ $W=1.46e-06	$X=295.82 $Y=93.01
Rd103	net11#132	net11#84	1.214659	$MET3	$L=2.3985e-05
+ $W=1.46e-06	$X=307.8125 $Y=68.105
Re18	BIAS#75	BIAS#80	1.249152	$MET2	$L=7.765e-06
+ $W=4.6e-07	$X=19.3475 $Y=66.505
Re23	BIAS#80	BIAS	1.986739	$MET2	$L=1.239e-05
+ $W=4.6e-07	$X=8.485 $Y=66.505
Re38	net3#89	net3#94	1.477587	$MET2	$L=9.185e-06
+ $W=4.6e-07	$X=19.3475 $Y=89.745
Re42	net3#94	net3#98	0.585528	$MET2	$L=3.65975e-06
+ $W=4.6e-07	$X=8.305 $Y=89.745
Re43	net3#98	net3#99	2.162087	$MET2	$L=1.348e-05
+ $W=4.6e-07	$X=6.475 $Y=89.745
Re49	net3#99	net3#105	0.611514	$MET2	$L=1.2105e-05
+ $W=1.46e-06	$X=24.1825 $Y=71.04
Re50	net3#105	net3#106	0.938938	$MET2	$L=1.8565e-05
+ $W=1.46e-06	$X=30.235 $Y=71.04
Re55	net1#10	net1#12	0.535233	$MET2	$L=1.056e-05
+ $W=1.46e-06	$X=26.4 $Y=45.445
Re56	net1#12	net1#13	0.741521	$MET2	$L=1.463e-05
+ $W=1.46e-06	$X=13.805 $Y=45.445
Re73	net6#101	net6#102	1.508957	$MET2	$L=9.38e-06
+ $W=4.6e-07	$X=29.52 $Y=27.855
Re78	net6#102	net6#107	1.388304	$MET2	$L=9.38e-06
+ $W=4.6e-07	$X=11.555 $Y=27.855
Re93	net6#108	net6#111	0.589973	$MET2	$L=1.239e-05
+ $W=1.46e-06	$X=13.06 $Y=13.685
Re94	net2#47	net2#48	0.549931	$MET2	$L=1.085e-05
+ $W=1.46e-06	$X=28.785 $Y=11.905
Re98	net7#16	net7#17	0.741521	$MET2	$L=1.463e-05
+ $W=1.46e-06	$X=13.805 $Y=10.125
Re99	net7#17	net7#18	0.625452	$MET2	$L=1.309e-05
+ $W=1.46e-06	$X=27.29 $Y=10.125
Re100	net6#112	net6#113	0.549931	$MET2	$L=1.085e-05
+ $W=1.46e-06	$X=28.785 $Y=43.665
Re110	net14#42	net14#44	0.571219	$MET2	$L=1.127e-05
+ $W=1.46e-06	$X=39.965 $Y=136.38
Re112	net14#44	net14#46	1.027890	$MET2	$L=2.028e-05
+ $W=1.46e-06	$X=15.23 $Y=136.38
Re113	net16#222	net16#223	1.040055	$MET2	$L=2.052e-05
+ $W=1.46e-06	$X=37.87 $Y=134.6
Re115	net16#223	net16#225	0.649274	$MET2	$L=1.356e-05
+ $W=1.46e-06	$X=12.245 $Y=134.6
Re144	net16#226	net16#227	1.623174	$MET2	$L=1.009e-05
+ $W=4.6e-07	$X=43.085 $Y=117.7
Re156	net16#227	net16#239	1.216174	$MET2	$L=8.31e-06
+ $W=4.6e-07	$X=9.62 $Y=117.7
Re177	net14#47	net14#49	0.911822	$MET2	$L=1.799e-05
+ $W=1.46e-06	$X=36.605 $Y=102.44
Re179	net14#49	net14#51	0.687288	$MET2	$L=1.356e-05
+ $W=1.46e-06	$X=11.87 $Y=102.44
Re180	net16#240	net16#241	0.699452	$MET2	$L=1.38e-05
+ $W=1.46e-06	$X=41.23 $Y=100.66
Re182	net16#241	net16#243	0.989877	$MET2	$L=2.028e-05
+ $W=1.46e-06	$X=15.605 $Y=100.66
Re194	net1#14	net1#6	1.190175	$MET2	$L=1.94552e-05
+ $W=3e-07	$X=67.991 $Y=94.7145
Re198	net20#28	net20#29	0.645087	$MET2	$L=4.01e-06
+ $W=4.6e-07	$X=70.4 $Y=117.84
Re199	net20#29	net20#30	1.003826	$MET2	$L=6.24e-06
+ $W=4.6e-07	$X=65.275 $Y=117.84
Re200	net20#30	net20#7	0.772969	$MET2	$L=5.57475e-06
+ $W=4.6e-07	$X=59.3675 $Y=117.84
Re202	net20#7	net20#33	0.603515	$MET2	$L=1.601e-05
+ $W=1.96e-06	$X=56.58 $Y=117.84
Re206	net20#7	net20#37	1.190239	$MET2	$L=4.96e-06
+ $W=3e-07	$X=62.48 $Y=109.065
Re207	net20#7	net20#38	1.198532	$MET2	$L=4.96e-06
+ $W=3e-07	$X=62.48 $Y=109.065
Re214	net10#29	net10#33	2.368025	$MET2	$L=1.526e-05
+ $W=4.6e-07	$X=93.295 $Y=121.62
Re215	net10#33	net10#34	0.878385	$MET2	$L=5.48025e-06
+ $W=4.6e-07	$X=90.555 $Y=136.88
Re216	net10#34	net10#35	1.003826	$MET2	$L=6.24e-06
+ $W=4.6e-07	$X=84.695 $Y=136.88
Re219	net10#35	net10#38	0.645087	$MET2	$L=4.01e-06
+ $W=4.6e-07	$X=79.57 $Y=136.88
Re222	net12#18	net12#21	0.658952	$MET2	$L=1.30197e-05
+ $W=1.46e-06	$X=84.075 $Y=119.84
Re224	net12#21	net12#23	0.602457	$MET2	$L=3.785e-06
+ $W=4.6e-07	$X=76 $Y=119.835
Re225	net12#23	net12#5	1.722913	$MET2	$L=1.075e-05
+ $W=4.6e-07	$X=70.625 $Y=116.05
Re227	net12#5	net12#26	0.599545	$MET2	$L=2.46e-06
+ $W=3e-07	$X=64.02 $Y=114.62
Re228	net12#5	net12#27	0.599422	$MET2	$L=2.46e-06
+ $W=3e-07	$X=66.4795 $Y=114.62
Re236	net7#19	net7#23	1.197178	$MET2	$L=2.366e-05
+ $W=1.46e-06	$X=92.06 $Y=116.69
Re237	net7#23	net7#24	1.052738	$MET2	$L=2.14503e-05
+ $W=1.46e-06	$X=80.23 $Y=116.69
Re240	net21#25	net21#27	0.764898	$MET2	$L=4.77475e-06
+ $W=4.6e-07	$X=106.0825 $Y=130.275
Re241	net21#27	net21#28	0.937065	$MET2	$L=5.865e-06
+ $W=4.6e-07	$X=103.695 $Y=130.275
Re243	net21#28	net21#30	0.569478	$MET2	$L=3.54e-06
+ $W=4.6e-07	$X=98.93 $Y=136.14
Re244	net15#217	net15#218	0.926521	$MET2	$L=1.828e-05
+ $W=1.46e-06	$X=101.195 $Y=89.245
Re245	net15#218	net15#219	0.632548	$MET2	$L=1.248e-05
+ $W=1.46e-06	$X=85.815 $Y=89.245
Re246	net15#219	net15#220	0.632548	$MET2	$L=1.248e-05
+ $W=1.46e-06	$X=73.335 $Y=89.245
Re247	net15#220	net15#221	0.632548	$MET2	$L=1.248e-05
+ $W=1.46e-06	$X=60.855 $Y=89.245
Re248	net15#221	net15#222	0.840356	$MET2	$L=1.758e-05
+ $W=1.46e-06	$X=46.325 $Y=89.245
Re264	net15#223	net15#224	0.610247	$MET2	$L=1.204e-05
+ $W=1.46e-06	$X=104.315 $Y=56.445
Re265	net15#224	net15#225	0.632548	$MET2	$L=1.248e-05
+ $W=1.46e-06	$X=92.055 $Y=56.445
Re266	net15#225	net15#226	0.632548	$MET2	$L=1.248e-05
+ $W=1.46e-06	$X=79.575 $Y=56.445
Re267	net15#226	net15#227	0.632548	$MET2	$L=1.248e-05
+ $W=1.46e-06	$X=67.095 $Y=56.445
Re268	net15#227	net15#228	1.156630	$MET2	$L=2.382e-05
+ $W=1.46e-06	$X=49.445 $Y=56.445
Re269	net17#133	net17#134	0.891041	$MET2	$L=1.758e-05
+ $W=1.46e-06	$X=45.825 $Y=54.665
Re270	net17#134	net17#135	0.632548	$MET2	$L=1.248e-05
+ $W=1.46e-06	$X=60.855 $Y=54.665
Re271	net17#135	net17#136	0.632548	$MET2	$L=1.248e-05
+ $W=1.46e-06	$X=73.335 $Y=54.665
Re272	net17#136	net17#137	0.632548	$MET2	$L=1.248e-05
+ $W=1.46e-06	$X=85.815 $Y=54.665
Re273	net17#137	net17#138	0.875836	$MET2	$L=1.828e-05
+ $W=1.46e-06	$X=100.695 $Y=54.665
Re289	A#167	A#183	0.565644	$MET2	$L=1.12e-05	$W=1.46e-06
+ $X=34.8 $Y=85.685
Re293	net15#229	net15#230	0.574260	$MET2	$L=1.133e-05
+ $W=1.46e-06	$X=105.635 $Y=42.29
Re294	net15#230	net15#231	0.632548	$MET2	$L=1.248e-05
+ $W=1.46e-06	$X=93.73 $Y=42.29
Re295	net15#231	net15#232	0.632548	$MET2	$L=1.248e-05
+ $W=1.46e-06	$X=81.25 $Y=42.29
Re296	net15#232	net15#233	0.632548	$MET2	$L=1.248e-05
+ $W=1.46e-06	$X=68.77 $Y=42.29
Re297	net15#233	net15#228	1.120644	$MET2	$L=2.311e-05
+ $W=1.46e-06	$X=51.475 $Y=42.29
Re298	net17#139	net17#140	0.855055	$MET2	$L=1.687e-05
+ $W=1.46e-06	$X=47.855 $Y=40.51
Re299	net17#140	net17#141	0.632548	$MET2	$L=1.248e-05
+ $W=1.46e-06	$X=62.53 $Y=40.51
Re300	net17#141	net17#142	0.632548	$MET2	$L=1.248e-05
+ $W=1.46e-06	$X=75.01 $Y=40.51
Re301	net17#142	net17#143	0.632548	$MET2	$L=1.248e-05
+ $W=1.46e-06	$X=87.49 $Y=40.51
Re302	net17#143	net17#138	0.839849	$MET2	$L=1.757e-05
+ $W=1.46e-06	$X=102.015 $Y=40.51
Re318	net15#235	net15#236	2.268261	$MET2	$L=1.41e-05
+ $W=4.6e-07	$X=104.25 $Y=26.4
Re319	net15#236	net15#237	1.003826	$MET2	$L=6.24e-06
+ $W=4.6e-07	$X=94.08 $Y=26.4
Re320	net15#237	net15#238	1.003826	$MET2	$L=6.24e-06
+ $W=4.6e-07	$X=87.84 $Y=26.4
Re321	net15#238	net15#239	1.003826	$MET2	$L=6.24e-06
+ $W=4.6e-07	$X=81.6 $Y=26.4
Re322	net15#239	net15#240	1.003826	$MET2	$L=6.24e-06
+ $W=4.6e-07	$X=75.36 $Y=26.4
Re323	net15#240	net15#241	1.003826	$MET2	$L=6.24e-06
+ $W=4.6e-07	$X=69.12 $Y=26.4
Re324	net15#241	net15#242	1.003826	$MET2	$L=6.24e-06
+ $W=4.6e-07	$X=62.88 $Y=26.4
Re325	net15#242	net15#243	1.003826	$MET2	$L=6.24e-06
+ $W=4.6e-07	$X=56.64 $Y=26.4
Re326	net15#243	net15#244	2.107391	$MET2	$L=1.41e-05
+ $W=4.6e-07	$X=46.97 $Y=26.4
Re342	net15#245	net15#246	0.890534	$MET2	$L=1.757e-05
+ $W=1.46e-06	$X=102.515 $Y=12.23
Re343	net15#246	net15#247	0.632548	$MET2	$L=1.248e-05
+ $W=1.46e-06	$X=87.49 $Y=12.23
Re344	net15#247	net15#248	0.632548	$MET2	$L=1.248e-05
+ $W=1.46e-06	$X=75.01 $Y=12.23
Re345	net15#248	net15#249	0.632548	$MET2	$L=1.248e-05
+ $W=1.46e-06	$X=62.53 $Y=12.23
Re346	net15#249	net15#250	0.804370	$MET2	$L=1.687e-05
+ $W=1.46e-06	$X=48.355 $Y=12.23
Re347	net17#145	net17#146	1.171329	$MET2	$L=2.311e-05
+ $W=1.46e-06	$X=50.975 $Y=10.45
Re348	net17#146	net17#147	0.632548	$MET2	$L=1.248e-05
+ $W=1.46e-06	$X=68.77 $Y=10.45
Re349	net17#147	net17#148	0.632548	$MET2	$L=1.248e-05
+ $W=1.46e-06	$X=81.25 $Y=10.45
Re350	net17#148	net17#149	0.632548	$MET2	$L=1.248e-05
+ $W=1.46e-06	$X=93.73 $Y=10.45
Re351	net17#149	net17#150	0.523575	$MET2	$L=1.133e-05
+ $W=1.46e-06	$X=105.135 $Y=10.45
Re356	net17#151	net17#156	0.942659	$MET2	$L=5.87975e-06
+ $W=4.6e-07	$X=93.35 $Y=114.275
Re357	net17#156	net17#157	3.319544	$MET2	$L=2.0675e-05
+ $W=4.6e-07	$X=90.41 $Y=114.275
Re358	net17#157	net17#158	3.395957	$MET2	$L=2.115e-05
+ $W=4.6e-07	$X=100.985 $Y=93.6
Re359	net17#158	net17#159	0.979696	$MET2	$L=6.13e-06
+ $W=4.6e-07	$X=111.56 $Y=93.6
Re362	net17#159	net17#162	0.559562	$MET2	$L=1.104e-05
+ $W=1.46e-06	$X=103.815 $Y=87.465
Re363	net17#162	net17#163	0.632548	$MET2	$L=1.248e-05
+ $W=1.46e-06	$X=92.055 $Y=87.465
Re364	net17#163	net17#164	0.632548	$MET2	$L=1.248e-05
+ $W=1.46e-06	$X=79.575 $Y=87.465
Re365	net17#164	net17#165	0.632548	$MET2	$L=1.248e-05
+ $W=1.46e-06	$X=67.095 $Y=87.465
Re366	net17#165	net17#166	1.207315	$MET2	$L=2.382e-05
+ $W=1.46e-06	$X=48.945 $Y=87.465
Re408	OUT	OUT#137	1.625587	$MET2	$L=1.0145e-05
+ $W=4.6e-07	$X=110.7775 $Y=133.5
Re409	OUT#137	OUT#138	0.543739	$MET2	$L=3.42e-06
+ $W=4.6e-07	$X=105.705 $Y=133.5
Re410	OUT#138	OUT#139	1.162320	$MET2	$L=7.24525e-06
+ $W=4.6e-07	$X=102.0825 $Y=136.92
Re414	OUT	OUT#109	0.922357	$MET2	$L=2.447e-05
+ $W=1.96e-06	$X=115.515 $Y=123.825
Re419	OUT#109	OUT#148	0.579739	$MET2	$L=1.53752e-05
+ $W=1.96e-06	$X=107.8275 $Y=99.355
Re423	net11#92	net11#93	2.561044	$MET2	$L=1.592e-05
+ $W=4.6e-07	$X=44.995 $Y=72.345
Re424	net11#93	net11#94	0.934652	$MET2	$L=5.81e-06
+ $W=4.6e-07	$X=55.86 $Y=72.345
Re425	net11#94	net11#95	1.073000	$MET2	$L=6.67e-06
+ $W=4.6e-07	$X=62.1 $Y=72.345
Re426	net11#95	net11#96	0.934652	$MET2	$L=5.81e-06
+ $W=4.6e-07	$X=68.34 $Y=72.345
Re427	net11#96	net11#97	1.073000	$MET2	$L=6.67e-06
+ $W=4.6e-07	$X=74.58 $Y=72.345
Re428	net11#97	net11#98	0.934652	$MET2	$L=5.81e-06
+ $W=4.6e-07	$X=80.82 $Y=72.345
Re429	net11#98	net11#99	1.073000	$MET2	$L=6.67e-06
+ $W=4.6e-07	$X=87.06 $Y=72.345
Re430	net11#99	net11#100	0.934652	$MET2	$L=5.81e-06
+ $W=4.6e-07	$X=93.3 $Y=72.345
Re431	net11#100	net11#101	2.611165	$MET2	$L=1.6665e-05
+ $W=4.6e-07	$X=104.5375 $Y=72.345
Re433	net11#101	net11#103	0.665246	$MET2	$L=4.1555e-06
+ $W=4.6e-07	$X=115.6075 $Y=72.345
Re436	net11#103	net11#106	1.499326	$MET2	$L=1.934e-05
+ $W=9.6e-07	$X=129.87 $Y=71.565
Re437	net11#106	net11#107	0.875667	$MET2	$L=1.14e-05
+ $W=9.6e-07	$X=139.54 $Y=71.565
Re438	net11#107	net11#108	3.552771	$MET2	$L=4.613e-05
+ $W=9.6e-07	$X=162.605 $Y=82.965
Re439	net11#108	net11#109	0.778156	$MET2	$L=1.0135e-05
+ $W=9.6e-07	$X=185.67 $Y=82.965
Re440	net11#109	net11#80	1.566333	$MET2	$L=2.036e-05
+ $W=9.6e-07	$X=195.85 $Y=93.1
Re445	net23#82	net23#83	2.295609	$MET2	$L=1.427e-05
+ $W=4.6e-07	$X=44.17 $Y=71.565
Re446	net23#83	net23#84	1.090696	$MET2	$L=6.78e-06
+ $W=4.6e-07	$X=54.695 $Y=71.565
Re447	net23#84	net23#85	0.916957	$MET2	$L=5.7e-06
+ $W=4.6e-07	$X=60.935 $Y=71.565
Re448	net23#85	net23#86	1.090696	$MET2	$L=6.78e-06
+ $W=4.6e-07	$X=67.175 $Y=71.565
Re449	net23#86	net23#87	0.916957	$MET2	$L=5.7e-06
+ $W=4.6e-07	$X=73.415 $Y=71.565
Re450	net23#87	net23#88	1.090696	$MET2	$L=6.78e-06
+ $W=4.6e-07	$X=79.655 $Y=71.565
Re451	net23#88	net23#89	0.916957	$MET2	$L=5.7e-06
+ $W=4.6e-07	$X=85.895 $Y=71.565
Re452	net23#89	net23#90	1.090696	$MET2	$L=6.78e-06
+ $W=4.6e-07	$X=92.135 $Y=71.565
Re453	net23#90	net23#91	2.984168	$MET2	$L=1.85702e-05
+ $W=4.6e-07	$X=104.81 $Y=71.565
Re455	net23#91	net23#93	1.000590	$MET2	$L=6.24e-06
+ $W=4.6e-07	$X=117.215 $Y=69.235
Re456	net23#93	net23#94	1.481982	$MET2	$L=1.9115e-05
+ $W=9.6e-07	$X=129.8925 $Y=69.235
Re457	net23#94	net23#95	0.745781	$MET2	$L=9.715e-06
+ $W=9.6e-07	$X=139.45 $Y=69.235
Re458	net23#95	net23#96	3.544677	$MET2	$L=4.6025e-05
+ $W=9.6e-07	$X=162.4625 $Y=59.52
Re459	net23#96	net23#97	0.751948	$MET2	$L=9.795e-06
+ $W=9.6e-07	$X=185.475 $Y=59.52
Re460	net23#97	net23#77	1.784461	$MET2	$L=2.31898e-05
+ $W=9.6e-07	$X=197.07 $Y=49.725
Re462	net23#77	net23#27	6.754042	$MET2	$L=8.766e-05
+ $W=9.6e-07	$X=252.495 $Y=44.02
Re473	net9#95	net9#149	0.632398	$MET2	$L=1.675e-05
+ $W=1.96e-06	$X=357.86 $Y=131.77
Re474	net9#149	net9#155	0.632398	$MET2	$L=1.675e-05
+ $W=1.96e-06	$X=357.86 $Y=115.02
Re475	net9#155	net9#161	0.632398	$MET2	$L=1.675e-05
+ $W=1.96e-06	$X=357.86 $Y=98.27
Re476	net9#161	net9#167	0.632398	$MET2	$L=1.675e-05
+ $W=1.96e-06	$X=357.86 $Y=81.52
Re477	net9#167	net9#173	0.632398	$MET2	$L=1.675e-05
+ $W=1.96e-06	$X=357.86 $Y=64.77
Re478	net9#173	net9#179	0.632398	$MET2	$L=1.675e-05
+ $W=1.96e-06	$X=357.86 $Y=48.02
Re479	net9#179	net9#185	0.632398	$MET2	$L=1.675e-05
+ $W=1.96e-06	$X=357.86 $Y=31.27
Re481	net9#185	net9#137	0.729353	$MET2	$L=1.6755e-05
+ $W=1.695e-06	$X=349.4825 $Y=7.2425
Re482	net9#137	net9#89	0.729474	$MET2	$L=1.6755e-05
+ $W=1.695e-06	$X=332.7275 $Y=7.2425
Re483	net9#89	net9	0.729474	$MET2	$L=1.6755e-05
+ $W=1.695e-06	$X=315.9725 $Y=7.2425
Re487	net9	net9#41	0.632398	$MET2	$L=1.675e-05
+ $W=1.96e-06	$X=307.595 $Y=14.52
Re488	net9#41	net9#35	0.632398	$MET2	$L=1.675e-05
+ $W=1.96e-06	$X=307.595 $Y=31.27
Re489	net9#35	net9#29	0.632398	$MET2	$L=1.675e-05
+ $W=1.96e-06	$X=307.595 $Y=48.02
Re490	net9#29	net9#23	0.632398	$MET2	$L=1.675e-05
+ $W=1.96e-06	$X=307.595 $Y=64.77
Re491	net9#23	net9#17	0.632398	$MET2	$L=1.675e-05
+ $W=1.96e-06	$X=307.595 $Y=81.52
Re492	net9#17	net9#11	0.632398	$MET2	$L=1.675e-05
+ $W=1.96e-06	$X=307.595 $Y=98.27
Re493	net9#11	net9#5	0.632398	$MET2	$L=1.675e-05
+ $W=1.96e-06	$X=307.595 $Y=115.02
Re496	net9#5	net9#53	0.631077	$MET2	$L=1.6755e-05
+ $W=1.96e-06	$X=315.9725 $Y=141.2
Re498	net9#53	net9#59	0.632398	$MET2	$L=1.675e-05
+ $W=1.96e-06	$X=324.35 $Y=131.77
Re499	net9#59	net9#65	0.632398	$MET2	$L=1.675e-05
+ $W=1.96e-06	$X=324.35 $Y=115.02
Re500	net9#65	net9#71	0.632398	$MET2	$L=1.675e-05
+ $W=1.96e-06	$X=324.35 $Y=98.27
Re501	net9#71	net9#77	1.264796	$MET2	$L=3.35e-05
+ $W=1.96e-06	$X=324.35 $Y=81.52
Re502	net9#77	net9#83	0.632398	$MET2	$L=1.675e-05
+ $W=1.96e-06	$X=324.35 $Y=48.02
Re503	net9#83	net9#89	0.632398	$MET2	$L=1.675e-05
+ $W=1.96e-06	$X=324.35 $Y=31.27
Re505	net9#53	net9#95	0.631077	$MET2	$L=1.6755e-05
+ $W=1.96e-06	$X=332.7275 $Y=141.2
Re507	net9#95	net9#101	0.632398	$MET2	$L=1.675e-05
+ $W=1.96e-06	$X=341.105 $Y=131.77
Re508	net9#101	net9#107	0.632398	$MET2	$L=1.675e-05
+ $W=1.96e-06	$X=341.105 $Y=115.02
Re509	net9#107	net9#113	0.632398	$MET2	$L=1.675e-05
+ $W=1.96e-06	$X=341.105 $Y=98.27
Re510	net9#113	net9#119	0.632398	$MET2	$L=1.675e-05
+ $W=1.96e-06	$X=341.105 $Y=81.52
Re511	net9#119	net9#125	0.632398	$MET2	$L=1.675e-05
+ $W=1.96e-06	$X=341.105 $Y=64.77
Re512	net9#125	net9#131	0.632398	$MET2	$L=1.675e-05
+ $W=1.96e-06	$X=341.105 $Y=48.02
Re513	net9#131	net9#137	0.632398	$MET2	$L=1.675e-05
+ $W=1.96e-06	$X=341.105 $Y=31.27
Rf2	net16#73	net16#75	1.921992	$MET1	$L=7.9875e-06
+ $W=3.2e-07	$X=9.365 $Y=74.485
Rf3	net16#75	net16#77	1.209742	$MET1	$L=5.6725e-06
+ $W=3.2e-07	$X=9.365 $Y=84.986
Rf5	net6#31	net6#33	1.770398	$MET1	$L=7.3575e-06
+ $W=3.2e-07	$X=10.075 $Y=52.335
Rf6	net6#33	net6#35	1.209742	$MET1	$L=5.6725e-06
+ $W=3.2e-07	$X=10.075 $Y=62.206
Rf12	net3#30	net3#32	1.493680	$MET1	$L=6.2075e-06
+ $W=3.2e-07	$X=10.905 $Y=76.265
Rf13	net3#32	net3#34	1.209742	$MET1	$L=5.6725e-06
+ $W=3.2e-07	$X=10.905 $Y=84.986
Rf19	VDD3A#16	VDD3A#19	0.628031	$MET1	$L=2.61e-06
+ $W=3.2e-07	$X=10.39 $Y=131.04
Rf20	VDD3A#19	VDD3A#18	1.210344	$MET1	$L=5.03e-06
+ $W=3.2e-07	$X=10.39 $Y=128.43
Rf21	VDD3A#18	VDD3A#21	1.114037	$MET1	$L=4.63975e-06
+ $W=3.2e-07	$X=10.39 $Y=121.08
Rf24	VDD3A#23	VDD3A#25	1.493680	$MET1	$L=6.2075e-06
+ $W=3.2e-07	$X=10.39 $Y=104.22
Rf25	VDD3A#25	VDD3A#27	1.209742	$MET1	$L=5.0275e-06
+ $W=3.2e-07	$X=10.39 $Y=112.941
Rf29	BIAS#30	BIAS#32	1.342086	$MET1	$L=5.5775e-06
+ $W=3.2e-07	$X=11.615 $Y=54.115
Rf30	BIAS#32	BIAS#34	1.209742	$MET1	$L=5.6725e-06
+ $W=3.2e-07	$X=11.615 $Y=62.206
Rf32	VDD3A#30	VDD3A#33	0.628031	$MET1	$L=2.61e-06
+ $W=3.2e-07	$X=11.93 $Y=131.04
Rf33	VDD3A#33	VDD3A#32	1.210344	$MET1	$L=9.27e-06
+ $W=3.2e-07	$X=11.93 $Y=128.43
Rf35	VDD3A#35	VDD3A#37	1.493680	$MET1	$L=6.2075e-06
+ $W=3.2e-07	$X=11.93 $Y=104.22
Rf36	VDD3A#37	VDD3A#39	1.209742	$MET1	$L=5.6725e-06
+ $W=3.2e-07	$X=11.93 $Y=112.941
Rf42	net16#78	net16#80	1.921992	$MET1	$L=7.9875e-06
+ $W=3.2e-07	$X=12.445 $Y=74.485
Rf43	net16#80	net16#82	1.209742	$MET1	$L=5.6725e-06
+ $W=3.2e-07	$X=12.445 $Y=84.986
Rf45	VDD3A#40	VDD3A#43	0.628031	$MET1	$L=2.61e-06
+ $W=3.2e-07	$X=12.63 $Y=131.04
Rf46	VDD3A#43	VDD3A#42	1.210344	$MET1	$L=9.27e-06
+ $W=3.2e-07	$X=12.63 $Y=128.43
Rf48	VDD3A#45	VDD3A#47	1.493680	$MET1	$L=6.2075e-06
+ $W=3.2e-07	$X=12.63 $Y=104.22
Rf49	VDD3A#47	VDD3A#49	1.209742	$MET1	$L=5.6725e-06
+ $W=3.2e-07	$X=12.63 $Y=112.941
Rf55	net6#36	net6#38	1.770398	$MET1	$L=7.3575e-06
+ $W=3.2e-07	$X=13.155 $Y=52.335
Rf56	net6#38	net6#40	1.209742	$MET1	$L=5.6725e-06
+ $W=3.2e-07	$X=13.155 $Y=62.206
Rf71	GNDA#25	GNDA#27	1.210344	$MET1	$L=5.03e-06
+ $W=3.2e-07	$X=12.86 $Y=38.125
Rf72	GNDA#27	GNDA#30	1.114037	$MET1	$L=4.63975e-06
+ $W=3.2e-07	$X=12.86 $Y=30.775
Rf75	GNDA#32	GNDA#34	1.342086	$MET1	$L=5.5775e-06
+ $W=3.2e-07	$X=12.86 $Y=15.465
Rf76	GNDA#34	GNDA#36	1.209742	$MET1	$L=5.0275e-06
+ $W=3.2e-07	$X=12.86 $Y=23.556
Rf80	net3#45	net3#47	1.493680	$MET1	$L=6.2075e-06
+ $W=3.2e-07	$X=13.985 $Y=76.265
Rf81	net3#47	net3#49	1.209742	$MET1	$L=5.6725e-06
+ $W=3.2e-07	$X=13.985 $Y=84.986
Rf83	OUT#8	OUT#11	1.056344	$MET1	$L=4.39e-06	$W=3.2e-07
+ $X=14.17 $Y=132.82
Rf84	OUT#11	OUT#10	1.210344	$MET1	$L=9.27e-06	$W=3.2e-07
+ $X=14.17 $Y=128.43
Rf86	OUT#13	OUT#15	2.778617	$MET1	$L=1.15475e-05	$W=3.2e-07
+ $X=14.17 $Y=98.88
Rf87	OUT#15	OUT#17	1.209742	$MET1	$L=5.6725e-06	$W=3.2e-07
+ $X=14.17 $Y=112.941
Rf94	GNDA#39	GNDA#41	1.210344	$MET1	$L=9.27e-06
+ $W=3.2e-07	$X=14.4 $Y=38.125
Rf96	GNDA#44	GNDA#46	1.342086	$MET1	$L=5.5775e-06
+ $W=3.2e-07	$X=14.4 $Y=15.465
Rf97	GNDA#46	GNDA#48	1.209742	$MET1	$L=5.6725e-06
+ $W=3.2e-07	$X=14.4 $Y=23.556
Rf99	BIAS#45	BIAS#47	1.342086	$MET1	$L=5.5775e-06
+ $W=3.2e-07	$X=14.695 $Y=54.115
Rf100	BIAS#47	BIAS#49	1.209742	$MET1	$L=5.6725e-06
+ $W=3.2e-07	$X=14.695 $Y=62.206
Rf102	VDD3A#50	VDD3A#53	0.628031	$MET1	$L=2.61e-06
+ $W=3.2e-07	$X=14.87 $Y=131.04
Rf103	VDD3A#53	VDD3A#52	1.210344	$MET1	$L=9.27e-06
+ $W=3.2e-07	$X=14.87 $Y=128.43
Rf105	VDD3A#55	VDD3A#57	1.493680	$MET1	$L=6.2075e-06
+ $W=3.2e-07	$X=14.87 $Y=104.22
Rf106	VDD3A#57	VDD3A#59	1.209742	$MET1	$L=5.6725e-06
+ $W=3.2e-07	$X=14.87 $Y=112.941
Rf113	GNDA#49	GNDA#51	1.210344	$MET1	$L=9.27e-06
+ $W=3.2e-07	$X=15.1 $Y=38.125
Rf115	GNDA#54	GNDA#56	1.342086	$MET1	$L=5.5775e-06
+ $W=3.2e-07	$X=15.1 $Y=15.465
Rf116	GNDA#56	GNDA#58	1.209742	$MET1	$L=5.6725e-06
+ $W=3.2e-07	$X=15.1 $Y=23.556
Rf118	net16#92	net16#94	1.921992	$MET1	$L=7.9875e-06
+ $W=3.2e-07	$X=15.525 $Y=74.485
Rf119	net16#94	net16#96	1.209742	$MET1	$L=5.6725e-06
+ $W=3.2e-07	$X=15.525 $Y=84.986
Rf139	net6#48	net6#50	1.770398	$MET1	$L=7.3575e-06
+ $W=3.2e-07	$X=16.235 $Y=52.335
Rf140	net6#50	net6#52	1.209742	$MET1	$L=5.6725e-06
+ $W=3.2e-07	$X=16.235 $Y=62.206
Rf142	OUT#18	OUT#21	1.056344	$MET1	$L=4.39e-06	$W=3.2e-07
+ $X=16.41 $Y=132.82
Rf143	OUT#21	OUT#20	1.210344	$MET1	$L=9.27e-06	$W=3.2e-07
+ $X=16.41 $Y=128.43
Rf145	OUT#23	OUT#25	2.778617	$MET1	$L=1.15475e-05	$W=3.2e-07
+ $X=16.41 $Y=98.88
Rf146	OUT#25	OUT#27	1.209742	$MET1	$L=5.6725e-06	$W=3.2e-07
+ $X=16.41 $Y=112.941
Rf148	net6#53	net6#56	1.333063	$MET1	$L=5.54e-06
+ $W=3.2e-07	$X=16.64 $Y=43.665
Rf149	net6#56	net6#55	1.210344	$MET1	$L=9.27e-06
+ $W=3.2e-07	$X=16.64 $Y=38.125
Rf151	net2	net2#3	2.198711	$MET1	$L=9.1375e-06	$W=3.2e-07
+ $X=16.64 $Y=11.905
Rf152	net2#3	net2#5	1.209742	$MET1	$L=5.6725e-06	$W=3.2e-07
+ $X=16.64 $Y=23.556
Rf154	VDD3A#60	VDD3A#63	0.628031	$MET1	$L=2.61e-06
+ $W=3.2e-07	$X=17.11 $Y=131.04
Rf155	VDD3A#63	VDD3A#62	1.210344	$MET1	$L=9.27e-06
+ $W=3.2e-07	$X=17.11 $Y=128.43
Rf157	VDD3A#65	VDD3A#67	1.493680	$MET1	$L=6.2075e-06
+ $W=3.2e-07	$X=17.11 $Y=104.22
Rf158	VDD3A#67	VDD3A#69	1.209742	$MET1	$L=5.6725e-06
+ $W=3.2e-07	$X=17.11 $Y=112.941
Rf161	GNDA#59	GNDA#61	1.210344	$MET1	$L=9.27e-06
+ $W=3.2e-07	$X=17.34 $Y=38.125
Rf163	GNDA#64	GNDA#66	1.342086	$MET1	$L=5.5775e-06
+ $W=3.2e-07	$X=17.34 $Y=15.465
Rf164	GNDA#66	GNDA#68	1.209742	$MET1	$L=5.6725e-06
+ $W=3.2e-07	$X=17.34 $Y=23.556
Rf180	net16#115	net16#118	1.484656	$MET1	$L=6.17e-06
+ $W=3.2e-07	$X=18.65 $Y=134.6
Rf181	net16#118	net16#117	1.210344	$MET1	$L=9.27e-06
+ $W=3.2e-07	$X=18.65 $Y=128.43
Rf183	net14	net14#3	1.921992	$MET1	$L=7.9875e-06
+ $W=3.2e-07	$X=18.65 $Y=102.44
Rf184	net14#3	net14#5	1.209742	$MET1	$L=5.6725e-06
+ $W=3.2e-07	$X=18.65 $Y=112.941
Rf186	net2#6	net2#9	0.904750	$MET1	$L=3.76e-06	$W=3.2e-07
+ $X=18.88 $Y=41.885
Rf187	net2#9	net2#8	1.210344	$MET1	$L=9.27e-06	$W=3.2e-07
+ $X=18.88 $Y=38.125
Rf189	net6#65	net6#67	1.770398	$MET1	$L=7.3575e-06
+ $W=3.2e-07	$X=18.88 $Y=13.685
Rf190	net6#67	net6#69	1.209742	$MET1	$L=5.6725e-06
+ $W=3.2e-07	$X=18.88 $Y=23.556
Rf192	VDD3A#70	VDD3A#73	0.628031	$MET1	$L=2.61e-06
+ $W=3.2e-07	$X=19.35 $Y=131.04
Rf193	VDD3A#73	VDD3A#72	1.210344	$MET1	$L=9.27e-06
+ $W=3.2e-07	$X=19.35 $Y=128.43
Rf195	VDD3A#75	VDD3A#77	1.493680	$MET1	$L=6.2075e-06
+ $W=3.2e-07	$X=19.35 $Y=104.22
Rf196	VDD3A#77	VDD3A#79	1.209742	$MET1	$L=5.6725e-06
+ $W=3.2e-07	$X=19.35 $Y=112.941
Rf199	GNDA#69	GNDA#71	1.210344	$MET1	$L=9.27e-06
+ $W=3.2e-07	$X=19.58 $Y=38.125
Rf201	GNDA#74	GNDA#76	1.342086	$MET1	$L=5.5775e-06
+ $W=3.2e-07	$X=19.58 $Y=15.465
Rf202	GNDA#76	GNDA#78	1.209742	$MET1	$L=5.6725e-06
+ $W=3.2e-07	$X=19.58 $Y=23.556
Rf218	OUT#28	OUT#31	1.056344	$MET1	$L=4.39e-06	$W=3.2e-07
+ $X=20.89 $Y=132.82
Rf219	OUT#31	OUT#30	1.210344	$MET1	$L=9.27e-06	$W=3.2e-07
+ $X=20.89 $Y=128.43
Rf221	OUT#33	OUT#35	2.778617	$MET1	$L=1.15475e-05	$W=3.2e-07
+ $X=20.89 $Y=98.88
Rf222	OUT#35	OUT#37	1.209742	$MET1	$L=5.6725e-06	$W=3.2e-07
+ $X=20.89 $Y=112.941
Rf224	net1	net1#4	1.761375	$MET1	$L=7.32e-06	$W=3.2e-07
+ $X=21.12 $Y=45.445
Rf225	net1#4	net1#3	1.210344	$MET1	$L=9.27e-06	$W=3.2e-07
+ $X=21.12 $Y=38.125
Rf227	net7	net7#3	2.627023	$MET1	$L=1.09175e-05	$W=3.2e-07
+ $X=21.12 $Y=10.125
Rf228	net7#3	net7#5	1.209742	$MET1	$L=5.6725e-06	$W=3.2e-07
+ $X=21.12 $Y=23.556
Rf230	VDD3A#80	VDD3A#83	0.628031	$MET1	$L=2.61e-06
+ $W=3.2e-07	$X=21.59 $Y=131.04
Rf231	VDD3A#83	VDD3A#82	1.210344	$MET1	$L=9.27e-06
+ $W=3.2e-07	$X=21.59 $Y=128.43
Rf233	VDD3A#85	VDD3A#87	1.493680	$MET1	$L=6.2075e-06
+ $W=3.2e-07	$X=21.59 $Y=104.22
Rf234	VDD3A#87	VDD3A#89	1.209742	$MET1	$L=5.6725e-06
+ $W=3.2e-07	$X=21.59 $Y=112.941
Rf237	GNDA#79	GNDA#81	1.210344	$MET1	$L=9.27e-06
+ $W=3.2e-07	$X=21.82 $Y=38.125
Rf239	GNDA#84	GNDA#86	1.342086	$MET1	$L=5.5775e-06
+ $W=3.2e-07	$X=21.82 $Y=15.465
Rf240	GNDA#86	GNDA#88	1.209742	$MET1	$L=5.6725e-06
+ $W=3.2e-07	$X=21.82 $Y=23.556
Rf242	net2#11	net2#13	1.342086	$MET1	$L=5.5775e-06
+ $W=3.2e-07	$X=22.46 $Y=54.255
Rf243	net2#13	net2#15	1.209742	$MET1	$L=5.6725e-06
+ $W=3.2e-07	$X=22.46 $Y=62.346
Rf259	OUT#38	OUT#41	1.056344	$MET1	$L=4.39e-06	$W=3.2e-07
+ $X=23.13 $Y=132.82
Rf260	OUT#41	OUT#40	1.210344	$MET1	$L=9.27e-06	$W=3.2e-07
+ $X=23.13 $Y=128.43
Rf262	OUT#43	OUT#45	2.778617	$MET1	$L=1.15475e-05	$W=3.2e-07
+ $X=23.13 $Y=98.88
Rf263	OUT#45	OUT#47	1.209742	$MET1	$L=5.6725e-06	$W=3.2e-07
+ $X=23.13 $Y=112.941
Rf265	net14#6	net14#8	1.493680	$MET1	$L=6.2075e-06
+ $W=3.2e-07	$X=23.17 $Y=76.265
Rf266	net14#8	net14#10	1.209742	$MET1	$L=5.6725e-06
+ $W=3.2e-07	$X=23.17 $Y=84.986
Rf268	net6#84	net6#87	1.333063	$MET1	$L=5.54e-06
+ $W=3.2e-07	$X=23.36 $Y=43.665
Rf269	net6#87	net6#86	1.210344	$MET1	$L=9.27e-06
+ $W=3.2e-07	$X=23.36 $Y=38.125
Rf271	net2#16	net2#18	2.198711	$MET1	$L=9.1375e-06
+ $W=3.2e-07	$X=23.36 $Y=11.905
Rf272	net2#18	net2#20	1.209742	$MET1	$L=5.6725e-06
+ $W=3.2e-07	$X=23.36 $Y=23.556
Rf278	VDD3A#90	VDD3A#93	0.628031	$MET1	$L=2.61e-06
+ $W=3.2e-07	$X=23.83 $Y=131.04
Rf279	VDD3A#93	VDD3A#92	1.210344	$MET1	$L=9.27e-06
+ $W=3.2e-07	$X=23.83 $Y=128.43
Rf281	VDD3A#95	VDD3A#97	1.493680	$MET1	$L=6.2075e-06
+ $W=3.2e-07	$X=23.83 $Y=104.22
Rf282	VDD3A#97	VDD3A#99	1.209742	$MET1	$L=5.6725e-06
+ $W=3.2e-07	$X=23.83 $Y=112.941
Rf284	net3#55	net3#57	1.770398	$MET1	$L=7.3575e-06
+ $W=3.2e-07	$X=24 $Y=52.475
Rf285	net3#57	net3#59	1.209742	$MET1	$L=5.6725e-06
+ $W=3.2e-07	$X=24 $Y=62.346
Rf288	GNDA#89	GNDA#91	1.210344	$MET1	$L=9.27e-06
+ $W=3.2e-07	$X=24.06 $Y=38.125
Rf290	GNDA#94	GNDA#96	1.342086	$MET1	$L=5.5775e-06
+ $W=3.2e-07	$X=24.06 $Y=15.465
Rf291	GNDA#96	GNDA#98	1.209742	$MET1	$L=5.6725e-06
+ $W=3.2e-07	$X=24.06 $Y=23.556
Rf298	A#13	A#15	1.921992	$MET1	$L=7.9875e-06	$W=3.2e-07
+ $X=24.71 $Y=74.485
Rf299	A#15	A#17	1.209742	$MET1	$L=5.6725e-06	$W=3.2e-07
+ $X=24.71 $Y=84.986
Rf319	net14#11	net14#14	1.912969	$MET1	$L=7.95e-06
+ $W=3.2e-07	$X=25.37 $Y=136.38
Rf320	net14#14	net14#13	1.210344	$MET1	$L=9.27e-06
+ $W=3.2e-07	$X=25.37 $Y=128.43
Rf322	net16#147	net16#149	2.350305	$MET1	$L=9.7675e-06
+ $W=3.2e-07	$X=25.37 $Y=100.66
Rf323	net16#149	net16#151	1.209742	$MET1	$L=5.6725e-06
+ $W=3.2e-07	$X=25.37 $Y=112.941
Rf325	net2#21	net2#23	1.342086	$MET1	$L=5.5775e-06
+ $W=3.2e-07	$X=25.54 $Y=54.255
Rf326	net2#23	net2#25	1.209742	$MET1	$L=5.6725e-06
+ $W=3.2e-07	$X=25.54 $Y=62.346
Rf328	net2#26	net2#29	0.904750	$MET1	$L=3.76e-06
+ $W=3.2e-07	$X=25.6 $Y=41.885
Rf329	net2#29	net2#28	1.210344	$MET1	$L=9.27e-06
+ $W=3.2e-07	$X=25.6 $Y=38.125
Rf331	net6#96	net6#98	1.770398	$MET1	$L=7.3575e-06
+ $W=3.2e-07	$X=25.6 $Y=13.685
Rf332	net6#98	net6#100	1.209742	$MET1	$L=5.6725e-06
+ $W=3.2e-07	$X=25.6 $Y=23.556
Rf339	VDD3A#100	VDD3A#103	0.628031	$MET1	$L=2.61e-06
+ $W=3.2e-07	$X=26.07 $Y=131.04
Rf340	VDD3A#103	VDD3A#102	1.210344	$MET1	$L=9.27e-06
+ $W=3.2e-07	$X=26.07 $Y=128.43
Rf342	VDD3A#105	VDD3A#107	1.493680	$MET1	$L=6.2075e-06
+ $W=3.2e-07	$X=26.07 $Y=104.22
Rf343	VDD3A#107	VDD3A#109	1.209742	$MET1	$L=5.6725e-06
+ $W=3.2e-07	$X=26.07 $Y=112.941
Rf345	net14#16	net14#18	1.493680	$MET1	$L=6.2075e-06
+ $W=3.2e-07	$X=26.25 $Y=76.265
Rf346	net14#18	net14#20	1.209742	$MET1	$L=5.6725e-06
+ $W=3.2e-07	$X=26.25 $Y=84.986
Rf349	GNDA#99	GNDA#101	1.210344	$MET1	$L=9.27e-06
+ $W=3.2e-07	$X=26.3 $Y=38.125
Rf351	GNDA#104	GNDA#106	1.342086	$MET1	$L=5.5775e-06
+ $W=3.2e-07	$X=26.3 $Y=15.465
Rf352	GNDA#106	GNDA#108	1.209742	$MET1	$L=5.6725e-06
+ $W=3.2e-07	$X=26.3 $Y=23.556
Rf358	net3#72	net3#74	1.770398	$MET1	$L=7.3575e-06
+ $W=3.2e-07	$X=27.08 $Y=52.475
Rf359	net3#74	net3#76	1.209742	$MET1	$L=5.6725e-06
+ $W=3.2e-07	$X=27.08 $Y=62.346
Rf374	net16#161	net16#164	1.484656	$MET1	$L=6.17e-06
+ $W=3.2e-07	$X=27.61 $Y=134.6
Rf375	net16#164	net16#163	1.210344	$MET1	$L=9.27e-06
+ $W=3.2e-07	$X=27.61 $Y=128.43
Rf377	net14#21	net14#23	1.921992	$MET1	$L=7.9875e-06
+ $W=3.2e-07	$X=27.61 $Y=102.44
Rf378	net14#23	net14#25	1.209742	$MET1	$L=5.6725e-06
+ $W=3.2e-07	$X=27.61 $Y=112.941
Rf380	A#18	A#20	1.921992	$MET1	$L=7.9875e-06	$W=3.2e-07
+ $X=27.79 $Y=74.485
Rf381	A#20	A#22	1.209742	$MET1	$L=5.6725e-06	$W=3.2e-07
+ $X=27.79 $Y=84.986
Rf384	GNDA#109	GNDA#111	1.210344	$MET1	$L=5.03e-06
+ $W=3.2e-07	$X=27.84 $Y=38.125
Rf385	GNDA#111	GNDA#114	1.114037	$MET1	$L=4.63975e-06
+ $W=3.2e-07	$X=27.84 $Y=30.775
Rf388	GNDA#116	GNDA#118	1.342086	$MET1	$L=5.5775e-06
+ $W=3.2e-07	$X=27.84 $Y=15.465
Rf389	GNDA#118	GNDA#120	1.209742	$MET1	$L=5.0275e-06
+ $W=3.2e-07	$X=27.84 $Y=23.556
Rf397	VDD3A#110	VDD3A#113	0.628031	$MET1	$L=2.61e-06
+ $W=3.2e-07	$X=28.31 $Y=131.04
Rf398	VDD3A#113	VDD3A#112	1.210344	$MET1	$L=9.27e-06
+ $W=3.2e-07	$X=28.31 $Y=128.43
Rf400	VDD3A#115	VDD3A#117	1.493680	$MET1	$L=6.2075e-06
+ $W=3.2e-07	$X=28.31 $Y=104.22
Rf401	VDD3A#117	VDD3A#119	1.209742	$MET1	$L=5.6725e-06
+ $W=3.2e-07	$X=28.31 $Y=112.941
Rf403	net2#31	net2#33	1.342086	$MET1	$L=5.5775e-06
+ $W=3.2e-07	$X=28.62 $Y=54.255
Rf404	net2#33	net2#35	1.209742	$MET1	$L=5.6725e-06
+ $W=3.2e-07	$X=28.62 $Y=62.346
Rf411	net14#26	net14#28	1.493680	$MET1	$L=6.2075e-06
+ $W=3.2e-07	$X=29.33 $Y=76.265
Rf412	net14#28	net14#30	1.209742	$MET1	$L=5.6725e-06
+ $W=3.2e-07	$X=29.33 $Y=84.986
Rf422	OUT#48	OUT#51	1.056344	$MET1	$L=4.39e-06	$W=3.2e-07
+ $X=29.85 $Y=132.82
Rf423	OUT#51	OUT#50	1.210344	$MET1	$L=9.27e-06	$W=3.2e-07
+ $X=29.85 $Y=128.43
Rf425	OUT#53	OUT#55	2.778617	$MET1	$L=1.15475e-05	$W=3.2e-07
+ $X=29.85 $Y=98.88
Rf426	OUT#55	OUT#57	1.209742	$MET1	$L=5.6725e-06	$W=3.2e-07
+ $X=29.85 $Y=112.941
Rf428	VDD3A#120	VDD3A#123	0.628031	$MET1	$L=2.61e-06
+ $W=3.2e-07	$X=30.55 $Y=131.04
Rf429	VDD3A#123	VDD3A#122	1.210344	$MET1	$L=9.27e-06
+ $W=3.2e-07	$X=30.55 $Y=128.43
Rf431	VDD3A#125	VDD3A#127	1.493680	$MET1	$L=6.2075e-06
+ $W=3.2e-07	$X=30.55 $Y=104.22
Rf432	VDD3A#127	VDD3A#129	1.209742	$MET1	$L=5.6725e-06
+ $W=3.2e-07	$X=30.55 $Y=112.941
Rf442	OUT#58	OUT#61	1.056344	$MET1	$L=4.39e-06	$W=3.2e-07
+ $X=32.09 $Y=132.82
Rf443	OUT#61	OUT#60	1.210344	$MET1	$L=9.27e-06	$W=3.2e-07
+ $X=32.09 $Y=128.43
Rf445	OUT#63	OUT#65	2.778617	$MET1	$L=1.15475e-05	$W=3.2e-07
+ $X=32.09 $Y=98.88
Rf446	OUT#65	OUT#67	1.209742	$MET1	$L=5.6725e-06	$W=3.2e-07
+ $X=32.09 $Y=112.941
Rf448	VDD3A#130	VDD3A#133	0.628031	$MET1	$L=2.61e-06
+ $W=3.2e-07	$X=32.79 $Y=131.04
Rf449	VDD3A#133	VDD3A#132	1.210344	$MET1	$L=9.27e-06
+ $W=3.2e-07	$X=32.79 $Y=128.43
Rf451	VDD3A#135	VDD3A#137	1.493680	$MET1	$L=6.2075e-06
+ $W=3.2e-07	$X=32.79 $Y=104.22
Rf452	VDD3A#137	VDD3A#139	1.209742	$MET1	$L=5.6725e-06
+ $W=3.2e-07	$X=32.79 $Y=112.941
Rf462	net14#31	net14#34	1.912969	$MET1	$L=7.95e-06
+ $W=3.2e-07	$X=34.33 $Y=136.38
Rf463	net14#34	net14#33	1.210344	$MET1	$L=9.27e-06
+ $W=3.2e-07	$X=34.33 $Y=128.43
Rf465	net16#193	net16#195	2.350305	$MET1	$L=9.7675e-06
+ $W=3.2e-07	$X=34.33 $Y=100.66
Rf466	net16#195	net16#197	1.209742	$MET1	$L=5.6725e-06
+ $W=3.2e-07	$X=34.33 $Y=112.941
Rf468	VDD3A#140	VDD3A#143	0.628031	$MET1	$L=2.61e-06
+ $W=3.2e-07	$X=35.03 $Y=131.04
Rf469	VDD3A#143	VDD3A#142	1.210344	$MET1	$L=9.27e-06
+ $W=3.2e-07	$X=35.03 $Y=128.43
Rf471	VDD3A#145	VDD3A#147	1.493680	$MET1	$L=6.2075e-06
+ $W=3.2e-07	$X=35.03 $Y=104.22
Rf472	VDD3A#147	VDD3A#149	1.209742	$MET1	$L=5.6725e-06
+ $W=3.2e-07	$X=35.03 $Y=112.941
Rf482	OUT#68	OUT#71	1.056344	$MET1	$L=4.39e-06	$W=3.2e-07
+ $X=36.57 $Y=132.82
Rf483	OUT#71	OUT#70	1.210344	$MET1	$L=9.27e-06	$W=3.2e-07
+ $X=36.57 $Y=128.43
Rf485	OUT#73	OUT#75	2.778617	$MET1	$L=1.15475e-05	$W=3.2e-07
+ $X=36.57 $Y=98.88
Rf486	OUT#75	OUT#77	1.209742	$MET1	$L=5.6725e-06	$W=3.2e-07
+ $X=36.57 $Y=112.941
Rf488	VDD3A#150	VDD3A#153	0.628031	$MET1	$L=2.61e-06
+ $W=3.2e-07	$X=37.27 $Y=131.04
Rf489	VDD3A#153	VDD3A#152	1.210344	$MET1	$L=9.27e-06
+ $W=3.2e-07	$X=37.27 $Y=128.43
Rf491	VDD3A#155	VDD3A#157	1.493680	$MET1	$L=6.2075e-06
+ $W=3.2e-07	$X=37.27 $Y=104.22
Rf492	VDD3A#157	VDD3A#159	1.209742	$MET1	$L=5.6725e-06
+ $W=3.2e-07	$X=37.27 $Y=112.941
Rf502	OUT#78	OUT#81	1.056344	$MET1	$L=4.39e-06	$W=3.2e-07
+ $X=38.81 $Y=132.82
Rf503	OUT#81	OUT#80	1.210344	$MET1	$L=9.27e-06	$W=3.2e-07
+ $X=38.81 $Y=128.43
Rf505	OUT#83	OUT#85	2.778617	$MET1	$L=1.15475e-05	$W=3.2e-07
+ $X=38.81 $Y=98.88
Rf506	OUT#85	OUT#87	1.209742	$MET1	$L=5.6725e-06	$W=3.2e-07
+ $X=38.81 $Y=112.941
Rf508	VDD3A#160	VDD3A#163	0.628031	$MET1	$L=2.61e-06
+ $W=3.2e-07	$X=39.51 $Y=131.04
Rf509	VDD3A#163	VDD3A#162	1.210344	$MET1	$L=9.27e-06
+ $W=3.2e-07	$X=39.51 $Y=128.43
Rf511	VDD3A#165	VDD3A#167	1.493680	$MET1	$L=6.2075e-06
+ $W=3.2e-07	$X=39.51 $Y=104.22
Rf512	VDD3A#167	VDD3A#169	1.209742	$MET1	$L=5.6725e-06
+ $W=3.2e-07	$X=39.51 $Y=112.941
Rf514	VDD3A#170	VDD3A#173	0.628031	$MET1	$L=2.61e-06
+ $W=3.2e-07	$X=41.05 $Y=131.04
Rf515	VDD3A#173	VDD3A#172	1.210344	$MET1	$L=5.03e-06
+ $W=3.2e-07	$X=41.05 $Y=128.43
Rf516	VDD3A#172	VDD3A#175	1.114037	$MET1	$L=4.63975e-06
+ $W=3.2e-07	$X=41.05 $Y=121.08
Rf519	VDD3A#177	VDD3A#179	1.493680	$MET1	$L=6.2075e-06
+ $W=3.2e-07	$X=41.05 $Y=104.22
Rf520	VDD3A#179	VDD3A#181	1.209742	$MET1	$L=5.0275e-06
+ $W=3.2e-07	$X=41.05 $Y=112.941
Rf524	A#23	A#26	0.628031	$MET1	$L=2.61e-06	$W=3.2e-07
+ $X=42.835 $Y=85.685
Rf525	A#26	A#25	1.210344	$MET1	$L=5.03e-06	$W=3.2e-07
+ $X=42.835 $Y=83.075
Rf526	A#25	A#28	1.114037	$MET1	$L=4.63975e-06	$W=3.2e-07
+ $X=42.835 $Y=75.725
Rf527	A#28	A#29	0.664068	$MET1	$L=5.22975e-06	$W=3.2e-07
+ $X=44.22 $Y=73.405
Rf529	A#30	A#32	1.493680	$MET1	$L=6.2075e-06	$W=3.2e-07
+ $X=42.835 $Y=58.225
Rf530	A#32	A#34	1.209742	$MET1	$L=5.0275e-06	$W=3.2e-07
+ $X=42.835 $Y=66.946
Rf532	A#34	A#36	0.664068	$MET1	$L=5.22975e-06	$W=3.2e-07
+ $X=44.22 $Y=70.505
Rf534	A#37	A#40	0.628031	$MET1	$L=2.61e-06	$W=3.2e-07
+ $X=48.375 $Y=85.685
Rf535	A#40	A#39	1.210344	$MET1	$L=9.27e-06	$W=3.2e-07
+ $X=48.375 $Y=83.075
Rf537	A#42	A#44	1.493680	$MET1	$L=6.2075e-06	$W=3.2e-07
+ $X=48.375 $Y=58.225
Rf538	A#44	A#46	1.209742	$MET1	$L=5.6725e-06	$W=3.2e-07
+ $X=48.375 $Y=66.946
Rf540	A#47	A#50	0.628031	$MET1	$L=2.61e-06	$W=3.2e-07
+ $X=49.075 $Y=85.685
Rf541	A#50	A#49	1.210344	$MET1	$L=9.27e-06	$W=3.2e-07
+ $X=49.075 $Y=83.075
Rf543	A#52	A#54	1.493680	$MET1	$L=6.2075e-06	$W=3.2e-07
+ $X=49.075 $Y=58.225
Rf544	A#54	A#56	1.209742	$MET1	$L=5.6725e-06	$W=3.2e-07
+ $X=49.075 $Y=66.946
Rf548	GNDA#124	GNDA#123	1.210344	$MET1	$L=5.03e-06
+ $W=3.2e-07	$X=44.51 $Y=36.75
Rf549	GNDA#123	GNDA#129	1.114037	$MET1	$L=4.63975e-06
+ $W=3.2e-07	$X=44.51 $Y=29.4
Rf550	GNDA#129	GNDA#130	0.664068	$MET1	$L=5.22975e-06
+ $W=3.2e-07	$X=45.895 $Y=27.08
Rf552	GNDA#132	GNDA#134	1.022055	$MET1	$L=4.2475e-06
+ $W=3.2e-07	$X=44.51 $Y=17.4635
Rf555	GNDA#132	GNDA#137	1.209742	$MET1	$L=5.0275e-06
+ $W=3.2e-07	$X=44.51 $Y=22.101
Rf557	GNDA#137	GNDA#139	0.664068	$MET1	$L=5.22975e-06
+ $W=3.2e-07	$X=45.895 $Y=25.66
Rf562	GNDA#142	GNDA#141	1.210344	$MET1	$L=9.27e-06
+ $W=3.2e-07	$X=50.05 $Y=36.75
Rf564	GNDA#148	GNDA#150	1.022055	$MET1	$L=4.2475e-06
+ $W=3.2e-07	$X=50.05 $Y=17.4635
Rf567	GNDA#148	GNDA#153	1.209742	$MET1	$L=5.6725e-06
+ $W=3.2e-07	$X=50.05 $Y=22.101
Rf572	GNDA#156	GNDA#155	1.210344	$MET1	$L=9.27e-06
+ $W=3.2e-07	$X=50.75 $Y=36.75
Rf574	GNDA#162	GNDA#164	1.022055	$MET1	$L=4.2475e-06
+ $W=3.2e-07	$X=50.75 $Y=17.4635
Rf577	GNDA#162	GNDA#167	1.209742	$MET1	$L=5.6725e-06
+ $W=3.2e-07	$X=50.75 $Y=22.101
Rf587	net23#29	net23#33	0.514994	$MET1	$L=2.15025e-06
+ $W=3.2e-07	$X=50.46 $Y=73.405
Rf590	net15#49	net15#52	1.484656	$MET1	$L=6.17e-06
+ $W=3.2e-07	$X=54.615 $Y=89.245
Rf591	net15#52	net15#51	1.210344	$MET1	$L=9.27e-06
+ $W=3.2e-07	$X=54.615 $Y=83.075
Rf593	net17#13	net17#15	2.350305	$MET1	$L=9.7675e-06
+ $W=3.2e-07	$X=54.615 $Y=54.665
Rf594	net17#15	net17#17	1.209742	$MET1	$L=5.6725e-06
+ $W=3.2e-07	$X=54.615 $Y=66.946
Rf596	A#57	A#60	0.628031	$MET1	$L=2.61e-06	$W=3.2e-07
+ $X=55.315 $Y=85.685
Rf597	A#60	A#59	1.210344	$MET1	$L=9.27e-06	$W=3.2e-07
+ $X=55.315 $Y=83.075
Rf599	A#62	A#64	1.493680	$MET1	$L=6.2075e-06	$W=3.2e-07
+ $X=55.315 $Y=58.225
Rf600	A#64	A#66	1.209742	$MET1	$L=5.6725e-06	$W=3.2e-07
+ $X=55.315 $Y=66.946
Rf601	net15#54	net15#55	0.589411	$MET1	$L=2.46e-06
+ $W=3.2e-07	$X=54.7495 $Y=27.08
Rf604	net15#55	net15#58	0.589531	$MET1	$L=2.46e-06
+ $W=3.2e-07	$X=52.29 $Y=25.66
Rf605	net15#55	net15#59	0.589531	$MET1	$L=2.46e-06
+ $W=3.2e-07	$X=52.29 $Y=27.08
Rf608	net15#55	net15#62	0.589411	$MET1	$L=2.46e-06
+ $W=3.2e-07	$X=54.7495 $Y=25.66
Rf610	net17#19	net17#21	0.880069	$MET1	$L=2.40025e-06
+ $W=2.1e-07	$X=56.29 $Y=36.75
Rf612	net17#19	net17#18	1.210344	$MET1	$L=9.27e-06
+ $W=3.2e-07	$X=56.29 $Y=36.75
Rf614	net15#63	net15#65	1.022055	$MET1	$L=4.2475e-06
+ $W=3.2e-07	$X=56.29 $Y=17.4635
Rf615	net15#65	net15#66	0.880069	$MET1	$L=2.40025e-06
+ $W=2.1e-07	$X=56.29 $Y=19.5875
Rf617	net15#63	net15#68	1.209742	$MET1	$L=5.6725e-06
+ $W=3.2e-07	$X=56.29 $Y=22.101
Rf622	GNDA#170	GNDA#169	1.210344	$MET1	$L=9.27e-06
+ $W=3.2e-07	$X=56.99 $Y=36.75
Rf624	GNDA#176	GNDA#178	1.022055	$MET1	$L=4.2475e-06
+ $W=3.2e-07	$X=56.99 $Y=17.4635
Rf627	GNDA#176	GNDA#181	1.209742	$MET1	$L=5.6725e-06
+ $W=3.2e-07	$X=56.99 $Y=22.101
Rf630	VDD3A#184	VDD3A#187	0.688187	$MET1	$L=2.86e-06
+ $W=3.2e-07	$X=59.385 $Y=131.57
Rf631	VDD3A#187	VDD3A#186	1.210344	$MET1	$L=9.27e-06
+ $W=3.2e-07	$X=59.385 $Y=128.71
Rf637	net23#35	net23#36	0.589411	$MET1	$L=2.46e-06
+ $W=3.2e-07	$X=59.3145 $Y=70.505
Rf638	net23#36	net23#37	0.589531	$MET1	$L=2.46e-06
+ $W=3.2e-07	$X=56.855 $Y=70.505
Rf643	net17#25	net17#28	1.056344	$MET1	$L=4.39e-06
+ $W=3.2e-07	$X=60.855 $Y=87.465
Rf644	net17#28	net17#27	1.210344	$MET1	$L=9.27e-06
+ $W=3.2e-07	$X=60.855 $Y=83.075
Rf646	net15#70	net15#72	1.921992	$MET1	$L=7.9875e-06
+ $W=3.2e-07	$X=60.855 $Y=56.445
Rf647	net15#72	net15#74	1.209742	$MET1	$L=5.6725e-06
+ $W=3.2e-07	$X=60.855 $Y=66.946
Rf649	A#67	A#70	0.628031	$MET1	$L=2.61e-06	$W=3.2e-07
+ $X=61.555 $Y=85.685
Rf650	A#70	A#69	1.210344	$MET1	$L=9.27e-06	$W=3.2e-07
+ $X=61.555 $Y=83.075
Rf652	A#72	A#74	1.493680	$MET1	$L=6.2075e-06	$W=3.2e-07
+ $X=61.555 $Y=58.225
Rf653	A#74	A#76	1.209742	$MET1	$L=5.6725e-06	$W=3.2e-07
+ $X=61.555 $Y=66.946
Rf654	net15#75	net15#76	0.589411	$MET1	$L=2.46e-06
+ $W=3.2e-07	$X=60.9895 $Y=27.08
Rf657	net15#76	net15#79	0.589531	$MET1	$L=2.46e-06
+ $W=3.2e-07	$X=58.53 $Y=25.66
Rf658	net15#76	net15#80	0.589531	$MET1	$L=2.46e-06
+ $W=3.2e-07	$X=58.53 $Y=27.08
Rf661	net15#76	net15#83	0.589411	$MET1	$L=2.46e-06
+ $W=3.2e-07	$X=60.9895 $Y=25.66
Rf665	net15#85	net15#87	1.532735	$MET1	$L=4.18025e-06
+ $W=2.1e-07	$X=62.53 $Y=36.75
Rf667	net15#85	net15#84	1.210344	$MET1	$L=9.27e-06
+ $W=3.2e-07	$X=62.53 $Y=36.75
Rf669	net17#30	net17#32	1.022055	$MET1	$L=4.2475e-06
+ $W=3.2e-07	$X=62.53 $Y=17.4635
Rf670	net17#32	net17#33	1.532735	$MET1	$L=4.18025e-06
+ $W=2.1e-07	$X=62.53 $Y=19.5875
Rf672	net17#30	net17#35	1.209742	$MET1	$L=5.6725e-06
+ $W=3.2e-07	$X=62.53 $Y=22.101
Rf677	GNDA#184	GNDA#183	1.210344	$MET1	$L=9.27e-06
+ $W=3.2e-07	$X=63.23 $Y=36.75
Rf679	GNDA#190	GNDA#192	1.022055	$MET1	$L=4.2475e-06
+ $W=3.2e-07	$X=63.23 $Y=17.4635
Rf682	GNDA#190	GNDA#195	1.209742	$MET1	$L=5.6725e-06
+ $W=3.2e-07	$X=63.23 $Y=22.101
Rf684	net20#11	net20#12	0.589411	$MET1	$L=2.46e-06
+ $W=3.2e-07	$X=63.3845 $Y=119.04
Rf685	net20#12	net20#13	0.589531	$MET1	$L=2.46e-06
+ $W=3.2e-07	$X=60.925 $Y=119.04
Rf690	net20#17	net20#20	1.236812	$MET1	$L=5.14e-06
+ $W=3.2e-07	$X=64.925 $Y=133.85
Rf691	net20#20	net20#19	1.210344	$MET1	$L=9.27e-06
+ $W=3.2e-07	$X=64.925 $Y=128.71
Rf693	VDD3A#189	VDD3A#192	0.688187	$MET1	$L=2.86e-06
+ $W=3.2e-07	$X=65.625 $Y=131.57
Rf694	VDD3A#192	VDD3A#191	1.210344	$MET1	$L=9.27e-06
+ $W=3.2e-07	$X=65.625 $Y=128.71
Rf703	net23#41	net23#45	0.514994	$MET1	$L=2.15025e-06
+ $W=3.2e-07	$X=62.94 $Y=73.405
Rf706	net15#91	net15#94	1.484656	$MET1	$L=6.17e-06
+ $W=3.2e-07	$X=67.095 $Y=89.245
Rf707	net15#94	net15#93	1.210344	$MET1	$L=9.27e-06
+ $W=3.2e-07	$X=67.095 $Y=83.075
Rf709	net17#37	net17#39	2.350305	$MET1	$L=9.7675e-06
+ $W=3.2e-07	$X=67.095 $Y=54.665
Rf710	net17#39	net17#41	1.209742	$MET1	$L=5.6725e-06
+ $W=3.2e-07	$X=67.095 $Y=66.946
Rf711	net12#4	net12#5	0.591877	$MET1	$L=2.46e-06
+ $W=3.2e-07	$X=64.02 $Y=114.62
Rf713	net12#5	net12#7	0.591877	$MET1	$L=2.46e-06
+ $W=3.2e-07	$X=66.4795 $Y=114.62
Rf715	A#77	A#80	0.628031	$MET1	$L=2.61e-06	$W=3.2e-07
+ $X=67.795 $Y=85.685
Rf716	A#80	A#79	1.210344	$MET1	$L=9.27e-06	$W=3.2e-07
+ $X=67.795 $Y=83.075
Rf718	A#82	A#84	1.493680	$MET1	$L=6.2075e-06	$W=3.2e-07
+ $X=67.795 $Y=58.225
Rf719	A#84	A#86	1.209742	$MET1	$L=5.6725e-06	$W=3.2e-07
+ $X=67.795 $Y=66.946
Rf722	net15#96	net15#97	0.589411	$MET1	$L=2.46e-06
+ $W=3.2e-07	$X=67.2295 $Y=27.08
Rf725	net15#97	net15#100	0.589531	$MET1	$L=2.46e-06
+ $W=3.2e-07	$X=64.77 $Y=25.66
Rf726	net15#97	net15#101	0.589531	$MET1	$L=2.46e-06
+ $W=3.2e-07	$X=64.77 $Y=27.08
Rf729	net15#97	net15#104	0.589411	$MET1	$L=2.46e-06
+ $W=3.2e-07	$X=67.2295 $Y=25.66
Rf731	net17#43	net17#45	0.880069	$MET1	$L=2.40025e-06
+ $W=2.1e-07	$X=68.77 $Y=36.75
Rf733	net17#43	net17#42	1.210344	$MET1	$L=9.27e-06
+ $W=3.2e-07	$X=68.77 $Y=36.75
Rf735	net15#105	net15#107	1.022055	$MET1	$L=4.2475e-06
+ $W=3.2e-07	$X=68.77 $Y=17.4635
Rf736	net15#107	net15#108	0.880069	$MET1	$L=2.40025e-06
+ $W=2.1e-07	$X=68.77 $Y=19.5875
Rf738	net15#105	net15#110	1.209742	$MET1	$L=5.6725e-06
+ $W=3.2e-07	$X=68.77 $Y=22.101
Rf743	GNDA#198	GNDA#197	1.210344	$MET1	$L=9.27e-06
+ $W=3.2e-07	$X=69.47 $Y=36.75
Rf745	GNDA#204	GNDA#206	1.022055	$MET1	$L=4.2475e-06
+ $W=3.2e-07	$X=69.47 $Y=17.4635
Rf748	GNDA#204	GNDA#209	1.209742	$MET1	$L=5.6725e-06
+ $W=3.2e-07	$X=69.47 $Y=22.101
Rf750	net20#22	net20#23	0.589411	$MET1	$L=2.46e-06
+ $W=3.2e-07	$X=69.6245 $Y=119.04
Rf751	net20#23	net20#24	0.589531	$MET1	$L=2.46e-06
+ $W=3.2e-07	$X=67.165 $Y=119.04
Rf756	net11#45	net11#48	1.785437	$MET1	$L=7.42e-06
+ $W=3.2e-07	$X=71.165 $Y=136.13
Rf757	net11#48	net11#47	1.210344	$MET1	$L=9.27e-06
+ $W=3.2e-07	$X=71.165 $Y=128.71
Rf763	net23#47	net23#48	0.589411	$MET1	$L=2.46e-06
+ $W=3.2e-07	$X=71.7945 $Y=70.505
Rf764	net23#48	net23#49	0.589531	$MET1	$L=2.46e-06
+ $W=3.2e-07	$X=69.335 $Y=70.505
Rf770	VDD3A	VDD3A#197	8.660093	$MET1	$L=3.605e-05
+ $W=3.2e-07	$X=57.435 $Y=138.52
Rf771	VDD3A#197	VDD3A#198	3.768188	$MET1	$L=1.568e-05
+ $W=3.2e-07	$X=65.275 $Y=102.47
Rf772	VDD3A#198	VDD3A#199	8.506094	$MET1	$L=3.537e-05
+ $W=3.2e-07	$X=73.115 $Y=102.47
Rf773	VDD3A#199	VDD3A#200	1.408704	$MET1	$L=6.22025e-06
+ $W=3.2e-07	$X=70.0075 $Y=137.84
Rf774	VDD3A#200	VDD3A	1.370147	$MET1	$L=6.05e-06
+ $W=3.2e-07	$X=63.8725 $Y=137.84
Rf776	net17#49	net17#52	1.056344	$MET1	$L=4.39e-06
+ $W=3.2e-07	$X=73.335 $Y=87.465
Rf777	net17#52	net17#51	1.210344	$MET1	$L=9.27e-06
+ $W=3.2e-07	$X=73.335 $Y=83.075
Rf779	net15#112	net15#114	1.921992	$MET1	$L=7.9875e-06
+ $W=3.2e-07	$X=73.335 $Y=56.445
Rf780	net15#114	net15#116	1.209742	$MET1	$L=5.6725e-06
+ $W=3.2e-07	$X=73.335 $Y=66.946
Rf782	A#87	A#90	0.628031	$MET1	$L=2.61e-06	$W=3.2e-07
+ $X=74.035 $Y=85.685
Rf783	A#90	A#89	1.210344	$MET1	$L=9.27e-06	$W=3.2e-07
+ $X=74.035 $Y=83.075
Rf785	A#92	A#94	1.493680	$MET1	$L=6.2075e-06	$W=3.2e-07
+ $X=74.035 $Y=58.225
Rf786	A#94	A#96	1.209742	$MET1	$L=5.6725e-06	$W=3.2e-07
+ $X=74.035 $Y=66.946
Rf787	net15#117	net15#118	0.589411	$MET1	$L=2.46e-06
+ $W=3.2e-07	$X=73.4695 $Y=27.08
Rf790	net15#118	net15#121	0.589531	$MET1	$L=2.46e-06
+ $W=3.2e-07	$X=71.01 $Y=25.66
Rf791	net15#118	net15#122	0.589531	$MET1	$L=2.46e-06
+ $W=3.2e-07	$X=71.01 $Y=27.08
Rf794	net15#118	net15#125	0.589411	$MET1	$L=2.46e-06
+ $W=3.2e-07	$X=73.4695 $Y=25.66
Rf796	net15#127	net15#129	1.532735	$MET1	$L=4.18025e-06
+ $W=2.1e-07	$X=75.01 $Y=36.75
Rf798	net15#127	net15#126	1.210344	$MET1	$L=9.27e-06
+ $W=3.2e-07	$X=75.01 $Y=36.75
Rf800	net17#54	net17#56	1.022055	$MET1	$L=4.2475e-06
+ $W=3.2e-07	$X=75.01 $Y=17.4635
Rf801	net17#56	net17#57	1.532735	$MET1	$L=4.18025e-06
+ $W=2.1e-07	$X=75.01 $Y=19.5875
Rf803	net17#54	net17#59	1.209742	$MET1	$L=5.6725e-06
+ $W=3.2e-07	$X=75.01 $Y=22.101
Rf808	GNDA#212	GNDA#211	1.210344	$MET1	$L=9.27e-06
+ $W=3.2e-07	$X=75.71 $Y=36.75
Rf810	GNDA#218	GNDA#220	1.022055	$MET1	$L=4.2475e-06
+ $W=3.2e-07	$X=75.71 $Y=17.4635
Rf813	GNDA#218	GNDA#223	1.209742	$MET1	$L=5.6725e-06
+ $W=3.2e-07	$X=75.71 $Y=22.101
Rf816	VDD3A#201	VDD3A#203	1.493680	$MET1	$L=6.2075e-06
+ $W=3.2e-07	$X=78.805 $Y=123.4
Rf817	VDD3A#203	VDD3A#205	1.209742	$MET1	$L=5.6725e-06
+ $W=3.2e-07	$X=78.805 $Y=132.121
Rf826	net23#53	net23#57	0.514994	$MET1	$L=2.15025e-06
+ $W=3.2e-07	$X=75.42 $Y=73.405
Rf829	net15#133	net15#136	1.484656	$MET1	$L=6.17e-06
+ $W=3.2e-07	$X=79.575 $Y=89.245
Rf830	net15#136	net15#135	1.210344	$MET1	$L=9.27e-06
+ $W=3.2e-07	$X=79.575 $Y=83.075
Rf832	net17#61	net17#63	2.350305	$MET1	$L=9.7675e-06
+ $W=3.2e-07	$X=79.575 $Y=54.665
Rf833	net17#63	net17#65	1.209742	$MET1	$L=5.6725e-06
+ $W=3.2e-07	$X=79.575 $Y=66.946
Rf835	A#97	A#100	0.628031	$MET1	$L=2.61e-06	$W=3.2e-07
+ $X=80.275 $Y=85.685
Rf836	A#100	A#99	1.210344	$MET1	$L=9.27e-06	$W=3.2e-07
+ $X=80.275 $Y=83.075
Rf838	A#102	A#104	1.493680	$MET1	$L=6.2075e-06	$W=3.2e-07
+ $X=80.275 $Y=58.225
Rf839	A#104	A#106	1.209742	$MET1	$L=5.6725e-06	$W=3.2e-07
+ $X=80.275 $Y=66.946
Rf840	net15#138	net15#139	0.589411	$MET1	$L=2.46e-06
+ $W=3.2e-07	$X=79.7095 $Y=27.08
Rf843	net15#139	net15#142	0.589531	$MET1	$L=2.46e-06
+ $W=3.2e-07	$X=77.25 $Y=25.66
Rf844	net15#139	net15#143	0.589531	$MET1	$L=2.46e-06
+ $W=3.2e-07	$X=77.25 $Y=27.08
Rf847	net15#139	net15#146	0.589411	$MET1	$L=2.46e-06
+ $W=3.2e-07	$X=79.7095 $Y=25.66
Rf849	net17#67	net17#69	0.880069	$MET1	$L=2.40025e-06
+ $W=2.1e-07	$X=81.25 $Y=36.75
Rf851	net17#67	net17#66	1.210344	$MET1	$L=9.27e-06
+ $W=3.2e-07	$X=81.25 $Y=36.75
Rf853	net15#147	net15#149	1.022055	$MET1	$L=4.2475e-06
+ $W=3.2e-07	$X=81.25 $Y=17.4635
Rf854	net15#149	net15#150	0.880069	$MET1	$L=2.40025e-06
+ $W=2.1e-07	$X=81.25 $Y=19.5875
Rf856	net15#147	net15#152	1.209742	$MET1	$L=5.6725e-06
+ $W=3.2e-07	$X=81.25 $Y=22.101
Rf861	GNDA#226	GNDA#225	1.210344	$MET1	$L=9.27e-06
+ $W=3.2e-07	$X=81.95 $Y=36.75
Rf863	GNDA#232	GNDA#234	1.022055	$MET1	$L=4.2475e-06
+ $W=3.2e-07	$X=81.95 $Y=17.4635
Rf866	GNDA#232	GNDA#237	1.209742	$MET1	$L=5.6725e-06
+ $W=3.2e-07	$X=81.95 $Y=22.101
Rf868	net10#7	net10#8	0.589411	$MET1	$L=2.46e-06
+ $W=3.2e-07	$X=82.8045 $Y=135.68
Rf869	net10#8	net10#9	0.589531	$MET1	$L=2.46e-06
+ $W=3.2e-07	$X=80.345 $Y=135.68
Rf874	net10#13	net10#15	1.921992	$MET1	$L=7.9875e-06
+ $W=3.2e-07	$X=84.345 $Y=121.62
Rf875	net10#15	net10#17	1.209742	$MET1	$L=5.6725e-06
+ $W=3.2e-07	$X=84.345 $Y=132.121
Rf877	VDD3A#206	VDD3A#208	1.493680	$MET1	$L=6.2075e-06
+ $W=3.2e-07	$X=85.045 $Y=123.4
Rf878	VDD3A#208	VDD3A#210	1.209742	$MET1	$L=5.6725e-06
+ $W=3.2e-07	$X=85.045 $Y=132.121
Rf884	net23#59	net23#60	0.589411	$MET1	$L=2.46e-06
+ $W=3.2e-07	$X=84.2745 $Y=70.505
Rf885	net23#60	net23#61	0.589531	$MET1	$L=2.46e-06
+ $W=3.2e-07	$X=81.815 $Y=70.505
Rf890	net17#73	net17#76	1.056344	$MET1	$L=4.39e-06
+ $W=3.2e-07	$X=85.815 $Y=87.465
Rf891	net17#76	net17#75	1.210344	$MET1	$L=9.27e-06
+ $W=3.2e-07	$X=85.815 $Y=83.075
Rf893	net15#154	net15#156	1.921992	$MET1	$L=7.9875e-06
+ $W=3.2e-07	$X=85.815 $Y=56.445
Rf894	net15#156	net15#158	1.209742	$MET1	$L=5.6725e-06
+ $W=3.2e-07	$X=85.815 $Y=66.946
Rf896	A#107	A#110	0.628031	$MET1	$L=2.61e-06	$W=3.2e-07
+ $X=86.515 $Y=85.685
Rf897	A#110	A#109	1.210344	$MET1	$L=9.27e-06	$W=3.2e-07
+ $X=86.515 $Y=83.075
Rf899	A#112	A#114	1.493680	$MET1	$L=6.2075e-06	$W=3.2e-07
+ $X=86.515 $Y=58.225
Rf900	A#114	A#116	1.209742	$MET1	$L=5.6725e-06	$W=3.2e-07
+ $X=86.515 $Y=66.946
Rf901	net15#159	net15#160	0.589411	$MET1	$L=2.46e-06
+ $W=3.2e-07	$X=85.9495 $Y=27.08
Rf904	net15#160	net15#163	0.589531	$MET1	$L=2.46e-06
+ $W=3.2e-07	$X=83.49 $Y=25.66
Rf905	net15#160	net15#164	0.589531	$MET1	$L=2.46e-06
+ $W=3.2e-07	$X=83.49 $Y=27.08
Rf908	net15#160	net15#167	0.589411	$MET1	$L=2.46e-06
+ $W=3.2e-07	$X=85.9495 $Y=25.66
Rf910	net15#169	net15#171	1.532735	$MET1	$L=4.18025e-06
+ $W=2.1e-07	$X=87.49 $Y=36.75
Rf912	net15#169	net15#168	1.210344	$MET1	$L=9.27e-06
+ $W=3.2e-07	$X=87.49 $Y=36.75
Rf914	net17#78	net17#80	1.022055	$MET1	$L=4.2475e-06
+ $W=3.2e-07	$X=87.49 $Y=17.4635
Rf915	net17#80	net17#81	1.532735	$MET1	$L=4.18025e-06
+ $W=2.1e-07	$X=87.49 $Y=19.5875
Rf917	net17#78	net17#83	1.209742	$MET1	$L=5.6725e-06
+ $W=3.2e-07	$X=87.49 $Y=22.101
Rf922	GNDA#240	GNDA#239	1.210344	$MET1	$L=9.27e-06
+ $W=3.2e-07	$X=88.19 $Y=36.75
Rf924	GNDA#246	GNDA#248	1.022055	$MET1	$L=4.2475e-06
+ $W=3.2e-07	$X=88.19 $Y=17.4635
Rf927	GNDA#246	GNDA#251	1.209742	$MET1	$L=5.6725e-06
+ $W=3.2e-07	$X=88.19 $Y=22.101
Rf929	net10#18	net10#19	0.589411	$MET1	$L=2.46e-06
+ $W=3.2e-07	$X=89.0445 $Y=135.68
Rf930	net10#19	net10#20	0.589531	$MET1	$L=2.46e-06
+ $W=3.2e-07	$X=86.585 $Y=135.68
Rf935	net12#8	net12#10	2.350305	$MET1	$L=9.7675e-06
+ $W=3.2e-07	$X=90.585 $Y=119.84
Rf936	net12#10	net12#12	1.209742	$MET1	$L=5.6725e-06
+ $W=3.2e-07	$X=90.585 $Y=132.121
Rf945	net23#65	net23#69	0.514994	$MET1	$L=2.15025e-06
+ $W=3.2e-07	$X=87.9 $Y=73.405
Rf948	net15#175	net15#178	1.484656	$MET1	$L=6.17e-06
+ $W=3.2e-07	$X=92.055 $Y=89.245
Rf949	net15#178	net15#177	1.210344	$MET1	$L=9.27e-06
+ $W=3.2e-07	$X=92.055 $Y=83.075
Rf951	net17#85	net17#87	2.350305	$MET1	$L=9.7675e-06
+ $W=3.2e-07	$X=92.055 $Y=54.665
Rf952	net17#87	net17#89	1.209742	$MET1	$L=5.6725e-06
+ $W=3.2e-07	$X=92.055 $Y=66.946
Rf953	VDD3A#211	VDD3A#212	4.677750	$MET1	$L=1.946e-05
+ $W=3.2e-07	$X=92.535 $Y=137.84
Rf954	VDD3A#212	VDD3A#213	3.768188	$MET1	$L=1.568e-05
+ $W=3.2e-07	$X=84.695 $Y=118.38
Rf955	VDD3A#213	VDD3A#214	4.677750	$MET1	$L=1.946e-05
+ $W=3.2e-07	$X=76.855 $Y=118.38
Rf956	VDD3A#214	VDD3A	1.503861	$MET1	$L=6.26e-06
+ $W=3.2e-07	$X=79.985 $Y=137.84
Rf959	VDD3A	VDD3A#218	0.642055	$MET1	$L=2.83525e-06
+ $W=3.2e-07	$X=88.1145 $Y=137.84
Rf960	VDD3A#218	VDD3A#211	0.680601	$MET1	$L=3.00525e-06
+ $W=3.2e-07	$X=91.035 $Y=137.84
Rf962	A#117	A#120	0.628031	$MET1	$L=2.61e-06	$W=3.2e-07
+ $X=92.755 $Y=85.685
Rf963	A#120	A#119	1.210344	$MET1	$L=9.27e-06	$W=3.2e-07
+ $X=92.755 $Y=83.075
Rf965	A#122	A#124	1.493680	$MET1	$L=6.2075e-06	$W=3.2e-07
+ $X=92.755 $Y=58.225
Rf966	A#124	A#126	1.209742	$MET1	$L=5.6725e-06	$W=3.2e-07
+ $X=92.755 $Y=66.946
Rf967	net15#180	net15#181	0.589411	$MET1	$L=2.46e-06
+ $W=3.2e-07	$X=92.1895 $Y=27.08
Rf970	net15#181	net15#184	0.589531	$MET1	$L=2.46e-06
+ $W=3.2e-07	$X=89.73 $Y=25.66
Rf971	net15#181	net15#185	0.589531	$MET1	$L=2.46e-06
+ $W=3.2e-07	$X=89.73 $Y=27.08
Rf974	net15#181	net15#188	0.589411	$MET1	$L=2.46e-06
+ $W=3.2e-07	$X=92.1895 $Y=25.66
Rf976	net17#91	net17#93	0.880069	$MET1	$L=2.40025e-06
+ $W=2.1e-07	$X=93.73 $Y=36.75
Rf978	net17#91	net17#90	1.210344	$MET1	$L=9.27e-06
+ $W=3.2e-07	$X=93.73 $Y=36.75
Rf980	net15#189	net15#191	1.022055	$MET1	$L=4.2475e-06
+ $W=3.2e-07	$X=93.73 $Y=17.4635
Rf981	net15#191	net15#192	0.880069	$MET1	$L=2.40025e-06
+ $W=2.1e-07	$X=93.73 $Y=19.5875
Rf983	net15#189	net15#194	1.209742	$MET1	$L=5.6725e-06
+ $W=3.2e-07	$X=93.73 $Y=22.101
Rf988	GNDA#254	GNDA#253	1.210344	$MET1	$L=9.27e-06
+ $W=3.2e-07	$X=94.43 $Y=36.75
Rf990	GNDA#260	GNDA#262	1.022055	$MET1	$L=4.2475e-06
+ $W=3.2e-07	$X=94.43 $Y=17.4635
Rf993	GNDA#260	GNDA#265	1.209742	$MET1	$L=5.6725e-06
+ $W=3.2e-07	$X=94.43 $Y=22.101
Rf1002	OUT#88	OUT#91	1.717485	$MET1	$L=7.13775e-06	$W=3.2e-07
+ $X=97.06 $Y=100.3245
Rf1003	OUT#91	OUT#93	1.209742	$MET1	$L=5.6725e-06	$W=3.2e-07
+ $X=97.06 $Y=109.976
Rf1005	net7#6	net7#8	1.402242	$MET1	$L=5.8275e-06	$W=3.2e-07
+ $X=97.69 $Y=123.64
Rf1006	net7#8	net7#10	1.209742	$MET1	$L=5.6725e-06
+ $W=3.2e-07	$X=97.69 $Y=131.981
Rf1012	net23#71	net23#72	0.589411	$MET1	$L=2.46e-06
+ $W=3.2e-07	$X=96.7545 $Y=70.505
Rf1013	net23#72	net23#73	0.589531	$MET1	$L=2.46e-06
+ $W=3.2e-07	$X=94.295 $Y=70.505
Rf1023	net17#109	net17#112	1.056344	$MET1	$L=4.39e-06
+ $W=3.2e-07	$X=98.295 $Y=87.465
Rf1024	net17#112	net17#111	1.210344	$MET1	$L=9.27e-06
+ $W=3.2e-07	$X=98.295 $Y=83.075
Rf1026	net15#196	net15#198	1.921992	$MET1	$L=7.9875e-06
+ $W=3.2e-07	$X=98.295 $Y=56.445
Rf1027	net15#198	net15#200	1.209742	$MET1	$L=5.6725e-06
+ $W=3.2e-07	$X=98.295 $Y=66.946
Rf1035	GNDA#267	GNDA#270	1.168860	$MET1	$L=4.85775e-06
+ $W=3.2e-07	$X=98.6 $Y=102.6045
Rf1036	GNDA#270	GNDA#272	1.209742	$MET1	$L=5.6725e-06
+ $W=3.2e-07	$X=98.6 $Y=109.976
Rf1038	A#127	A#130	0.628031	$MET1	$L=2.61e-06	$W=3.2e-07
+ $X=98.995 $Y=85.685
Rf1039	A#130	A#129	1.210344	$MET1	$L=9.27e-06	$W=3.2e-07
+ $X=98.995 $Y=83.075
Rf1041	A#132	A#134	1.493680	$MET1	$L=6.2075e-06	$W=3.2e-07
+ $X=98.995 $Y=58.225
Rf1042	A#134	A#136	1.209742	$MET1	$L=5.6725e-06	$W=3.2e-07
+ $X=98.995 $Y=66.946
Rf1044	net10#24	net10#26	1.950867	$MET1	$L=8.1075e-06
+ $W=3.2e-07	$X=99.23 $Y=121.36
Rf1045	net10#26	net10#28	1.209742	$MET1	$L=5.6725e-06
+ $W=3.2e-07	$X=99.23 $Y=131.981
Rf1046	net15#201	net15#202	0.589411	$MET1	$L=2.46e-06
+ $W=3.2e-07	$X=98.4295 $Y=27.08
Rf1049	net15#202	net15#205	0.589531	$MET1	$L=2.46e-06
+ $W=3.2e-07	$X=95.97 $Y=25.66
Rf1050	net15#202	net15#206	0.589531	$MET1	$L=2.46e-06
+ $W=3.2e-07	$X=95.97 $Y=27.08
Rf1053	net15#202	net15#209	0.589411	$MET1	$L=2.46e-06
+ $W=3.2e-07	$X=98.4295 $Y=25.66
Rf1060	net7#11	net7#13	1.402242	$MET1	$L=5.8275e-06
+ $W=3.2e-07	$X=99.93 $Y=123.64
Rf1061	net7#13	net7#15	1.209742	$MET1	$L=5.6725e-06
+ $W=3.2e-07	$X=99.93 $Y=131.981
Rf1063	net15#211	net15#213	1.532735	$MET1	$L=4.18025e-06
+ $W=2.1e-07	$X=99.97 $Y=36.75
Rf1065	net15#211	net15#210	1.210344	$MET1	$L=9.27e-06
+ $W=3.2e-07	$X=99.97 $Y=36.75
Rf1067	net17#120	net17#122	1.022055	$MET1	$L=4.2475e-06
+ $W=3.2e-07	$X=99.97 $Y=17.4635
Rf1068	net17#122	net17#123	1.532735	$MET1	$L=4.18025e-06
+ $W=2.1e-07	$X=99.97 $Y=19.5875
Rf1070	net17#120	net17#125	1.209742	$MET1	$L=5.6725e-06
+ $W=3.2e-07	$X=99.97 $Y=22.101
Rf1074	OUT#100	OUT#103	1.717485	$MET1	$L=7.13775e-06
+ $W=3.2e-07	$X=100.14 $Y=100.3245
Rf1075	OUT#103	OUT#105	1.209742	$MET1	$L=5.6725e-06
+ $W=3.2e-07	$X=100.14 $Y=109.976
Rf1079	GNDA#274	GNDA#273	1.210344	$MET1	$L=9.27e-06
+ $W=3.2e-07	$X=100.67 $Y=36.75
Rf1081	GNDA#280	GNDA#282	1.022055	$MET1	$L=4.2475e-06
+ $W=3.2e-07	$X=100.67 $Y=17.4635
Rf1084	GNDA#280	GNDA#285	1.209742	$MET1	$L=5.6725e-06
+ $W=3.2e-07	$X=100.67 $Y=22.101
Rf1097	net12#13	net12#15	2.499492	$MET1	$L=1.03875e-05
+ $W=3.2e-07	$X=101.47 $Y=119.08
Rf1098	net12#15	net12#17	1.209742	$MET1	$L=5.6725e-06
+ $W=3.2e-07	$X=101.47 $Y=131.981
Rf1101	GNDA#287	GNDA#290	1.168860	$MET1	$L=4.85775e-06
+ $W=3.2e-07	$X=101.68 $Y=102.6045
Rf1102	GNDA#290	GNDA#292	1.209742	$MET1	$L=5.6725e-06
+ $W=3.2e-07	$X=101.68 $Y=109.976
Rf1104	A#137	A#140	0.628031	$MET1	$L=2.61e-06	$W=3.2e-07
+ $X=104.535 $Y=85.685
Rf1105	A#140	A#139	1.210344	$MET1	$L=5.03e-06	$W=3.2e-07
+ $X=104.535 $Y=83.075
Rf1106	A#139	A#142	1.114037	$MET1	$L=4.63975e-06	$W=3.2e-07
+ $X=104.535 $Y=75.725
Rf1107	A#142	A#143	0.664182	$MET1	$L=5.23025e-06	$W=3.2e-07
+ $X=103.15 $Y=73.405
Rf1109	A#144	A#146	1.493680	$MET1	$L=6.2075e-06	$W=3.2e-07
+ $X=104.535 $Y=58.225
Rf1110	A#146	A#148	1.209742	$MET1	$L=5.0275e-06	$W=3.2e-07
+ $X=104.535 $Y=66.946
Rf1112	A#148	A#150	0.664182	$MET1	$L=5.23025e-06	$W=3.2e-07
+ $X=103.15 $Y=70.505
Rf1114	GNDA#293	GNDA#294	1.210344	$MET1	$L=5.03e-06
+ $W=3.2e-07	$X=106.21 $Y=36.75
Rf1115	GNDA#294	GNDA#297	1.114037	$MET1	$L=4.63975e-06
+ $W=3.2e-07	$X=106.21 $Y=29.4
Rf1116	GNDA#297	GNDA#298	0.664182	$MET1	$L=5.23025e-06
+ $W=3.2e-07	$X=104.825 $Y=27.08
Rf1120	GNDA#302	GNDA#303	1.022055	$MET1	$L=4.2475e-06
+ $W=3.2e-07	$X=106.21 $Y=17.4635
Rf1121	GNDA#303	GNDA#305	1.209742	$MET1	$L=5.0275e-06
+ $W=3.2e-07	$X=106.21 $Y=22.101
Rf1123	GNDA#305	GNDA#307	0.664182	$MET1	$L=5.23025e-06
+ $W=3.2e-07	$X=104.825 $Y=25.66
Rf1132	VDD3A	VDD3A#225	1.965054	$MET1	$L=4.11e-05
+ $W=1.61e-06	$X=3.735 $Y=138.52
Rf1135	VDD3A#225	VDD3A#228	4.249385	$MET1	$L=1.767e-05
+ $W=3.2e-07	$X=7.415 $Y=90.695
Rf1136	VDD3A#228	VDD3A#225	5.737650	$MET1	$L=2.63875e-05
+ $W=3.2e-07	$X=20.609 $Y=73.025
Rf1138	VDD3A#225	VDD3A#231	1.489414	$MET1	$L=7.68073e-05
+ $W=3.97e-06	$X=72.321 $Y=51.38
Rf1141	VDD3A#231	VDD3A#234	8.980202	$MET1	$L=3.73305e-05
+ $W=3.2e-07	$X=111.045 $Y=53.3745
Rf1142	VDD3A#234	VDD3A#225	14.701236	$MET1	$L=6.14152e-05
+ $W=3.2e-07	$X=80.3375 $Y=90.705
Rf1146	VDD3A#225	VDD3A#239	5.034452	$MET1	$L=2.29228e-05
+ $W=3.2e-07	$X=38.0735 $Y=97.42
Rf1149	VDD3A#225	VDD3A	1.855595	$MET1	$L=4.11e-05
+ $W=1.705e-06	$X=49.5325 $Y=97.42
Rf1150	VDD3A#239	VDD3A#225	5.034430	$MET1	$L=2.28748e-05
+ $W=3.2e-07	$X=15.175 $Y=97.42
Rf1178	VDD3A#231	VDD3A#251	6.718194	$MET1	$L=2.79298e-05
+ $W=3.2e-07	$X=119.4825 $Y=38.345
Rf1179	VDD3A#251	VDD3A#252	8.036875	$MET1	$L=3.342e-05
+ $W=3.2e-07	$X=136.395 $Y=7.755
Rf1180	VDD3A#252	VDD3A#253	8.036875	$MET1	$L=3.342e-05
+ $W=3.2e-07	$X=153.105 $Y=7.755
Rf1181	VDD3A#253	VDD3A#231	8.128595	$MET1	$L=3.3825e-05
+ $W=3.2e-07	$X=136.1925 $Y=41.175
Rf1184	net8#5	net8#7	0.893071	$MET1	$L=1.13798e-05	$W=9.8e-07
+ $X=203.225 $Y=136.345
Rf1185	net8#7	net8#8	1.528607	$MET1	$L=1.9475e-05	$W=9.8e-07
+ $X=197.535 $Y=136.345
Rf1186	net8#8	net8#9	2.662786	$MET1	$L=3.391e-05	$W=9.8e-07
+ $X=180.58 $Y=116.87
Rf1187	net8#9	net8#10	1.462607	$MET1	$L=1.8635e-05
+ $W=9.8e-07	$X=163.625 $Y=116.87
Rf1188	net8#10	net8#11	3.495395	$MET1	$L=4.45003e-05
+ $W=9.8e-07	$X=141.375 $Y=98.235
Rf1193	net5#5	net5#7	0.883249	$MET1	$L=1.12548e-05	$W=9.8e-07
+ $X=203.2875 $Y=88.08
Rf1194	net5#7	net5#8	1.446107	$MET1	$L=1.8425e-05	$W=9.8e-07
+ $X=197.66 $Y=88.08
Rf1195	net5#8	net5#9	2.662786	$MET1	$L=3.391e-05	$W=9.8e-07
+ $X=180.705 $Y=69.655
Rf1196	net5#9	net5#10	1.563179	$MET1	$L=1.9915e-05
+ $W=9.8e-07	$X=163.75 $Y=69.655
Rf1197	net5#10	net5#11	3.505216	$MET1	$L=4.46253e-05
+ $W=9.8e-07	$X=141.4375 $Y=49.74
Rf1334	GNDA#311	GNDA#312	4.016739	$MET1	$L=1.69575e-05
+ $W=3.2e-07	$X=94.28 $Y=98.2775
Rf1335	GNDA#312	GNDA#313	2.074188	$MET1	$L=8.64e-06
+ $W=3.2e-07	$X=98.6 $Y=115.235
Rf1336	GNDA#313	GNDA#311	4.227833	$MET1	$L=1.93525e-05
+ $W=3.2e-07	$X=102.92 $Y=115.235
Rf1338	GNDA#311	GNDA#316	0.666000	$MET1	$L=4.95728e-05
+ $W=5.735e-06	$X=114.68 $Y=95.8825
Rf1342	GNDA#316	GNDA#320	0.988790	$MET1	$L=3.43778e-05
+ $W=2.675e-06	$X=96.6785 $Y=4.5825
Rf1345	GNDA#320	GNDA	0.919580	$MET1	$L=3.17253e-05
+ $W=2.675e-06	$X=55.3675 $Y=4.5825
Rf1357	GNDA#316	GNDA#334	43.753963	$MET1	$L=0.000182008
+ $W=3.2e-07	$X=205.716 $Y=46.31
Rf1358	GNDA#334	GNDA#335	22.540546	$MET1	$L=9.3695e-05
+ $W=3.2e-07	$X=296.72 $Y=46.31
Rf1359	GNDA#335	GNDA#336	43.099262	$MET1	$L=0.00017913
+ $W=3.2e-07	$X=207.155 $Y=140.005
Rf1360	GNDA#336	GNDA#311	3.852918	$MET1	$L=1.604e-05
+ $W=3.2e-07	$X=117.59 $Y=140.005
Rf1365	GNDA	GNDA#342	8.320879	$MET1	$L=3.45905e-05
+ $W=3.2e-07	$X=38.71 $Y=9.1595
Rf1366	GNDA#342	GNDA#343	17.605766	$MET1	$L=7.31797e-05
+ $W=3.2e-07	$X=75.3025 $Y=43.75
Rf1369	GNDA	GNDA#346	1.158960	$MET1	$L=3.80703e-05
+ $W=2.53e-06	$X=5.036 $Y=8.8345
Rf1372	GNDA#346	GNDA#349	3.598674	$MET1	$L=1.50653e-05
+ $W=3.2e-07	$X=8.835 $Y=52.4
Rf1373	GNDA#349	GNDA#350	5.054328	$MET1	$L=2.1025e-05
+ $W=3.2e-07	$X=19.3475 $Y=67.465
Rf1374	GNDA#350	GNDA#351	3.987156	$MET1	$L=1.659e-05
+ $W=3.2e-07	$X=29.86 $Y=67.465
Rf1375	GNDA#351	GNDA#352	2.380829	$MET1	$L=1.05127e-05
+ $W=3.2e-07	$X=24.606 $Y=50.875
Rf1376	GNDA	GNDA#353	33.624512	$MET1	$L=0.000139827
+ $W=3.2e-07	$X=1.925 $Y=4.5825
Rf1377	GNDA#353	GNDA#354	88.134918	$MET1	$L=0.000366295
+ $W=3.2e-07	$X=185.0725 $Y=144.41
Rf1378	GNDA#354	GNDA#355	33.624512	$MET1	$L=0.000139827
+ $W=3.2e-07	$X=368.22 $Y=144.41
Rf1380	GNDA#355	GNDA#357	1.446511	$MET1	$L=5.0265e-05
+ $W=2.675e-06	$X=325.7625 $Y=4.5825
Rf1382	GNDA#357	GNDA#359	3.930584	$MET1	$L=0.00013987
+ $W=2.74e-06	$X=228.17 $Y=4.615
Rf1383	GNDA#359	GNDA#360	0.584464	$MET1	$L=2.04603e-05
+ $W=2.675e-06	$X=148.0075 $Y=4.615
Rf1384	GNDA#311	GNDA#361	1.191235	$MET1	$L=5.8275e-06
+ $W=3.2e-07	$X=95.52 $Y=98.2775
Rf1385	GNDA#361	GNDA#363	1.209742	$MET1	$L=5.6725e-06
+ $W=3.2e-07	$X=95.52 $Y=109.976
Rf1390	GNDA#311	GNDA#367	1.533489	$MET1	$L=6.5e-06
+ $W=3.2e-07	$X=102.71 $Y=123.87
Rf1391	GNDA#367	GNDA#368	1.501500	$MET1	$L=6.26e-06
+ $W=3.2e-07	$X=99.58 $Y=117.37
Rf1392	GNDA#368	GNDA#369	4.930406	$MET1	$L=2.051e-05
+ $W=3.2e-07	$X=96.45 $Y=117.37
Rf1393	GNDA#369	GNDA#370	1.501500	$MET1	$L=6.26e-06
+ $W=3.2e-07	$X=99.58 $Y=137.88
Rf1394	GNDA#370	GNDA#371	1.380395	$MET1	$L=6.09525e-06
+ $W=3.2e-07	$X=102.7125 $Y=137.88
Rf1396	GNDA	GNDA#372	8.120103	$MET1	$L=3.5855e-05
+ $W=3.2e-07	$X=57.435 $Y=8.99
Rf1397	GNDA#343	GNDA#316	0.639213	$MET1	$L=2.8225e-06
+ $W=3.2e-07	$X=113.3035 $Y=43.75
Rf1398	GNDA#346	GNDA#373	7.275778	$MET1	$L=3.03178e-05
+ $W=3.2e-07	$X=19.761 $Y=46.905
Rf1399	GNDA#373	GNDA	9.234126	$MET1	$L=3.82402e-05
+ $W=3.2e-07	$X=34.5225 $Y=8.665
Rf1401	GNDA#352	GNDA#346	2.442754	$MET1	$L=1.05125e-05
+ $W=3.2e-07	$X=14.0935 $Y=50.875
Rf1403	GNDA#357	GNDA#377	0.597871	$MET1	$L=1.329e-05
+ $W=1.71e-06	$X=300.63 $Y=7.555
Rf1407	GNDA#377	GNDA#381	0.569386	$MET1	$L=1.265e-05
+ $W=1.71e-06	$X=300.63 $Y=24.945
Rf1411	GNDA#381	GNDA#385	0.569386	$MET1	$L=1.265e-05
+ $W=1.71e-06	$X=300.63 $Y=41.695
Rf1415	GNDA#385	GNDA#389	0.569386	$MET1	$L=1.265e-05
+ $W=1.71e-06	$X=300.63 $Y=58.445
Rf1419	GNDA#389	GNDA#393	0.569386	$MET1	$L=1.265e-05
+ $W=1.71e-06	$X=300.63 $Y=75.195
Rf1423	GNDA#393	GNDA#397	0.569386	$MET1	$L=1.265e-05
+ $W=1.71e-06	$X=300.63 $Y=91.945
Rf1427	GNDA#397	GNDA#401	0.569386	$MET1	$L=1.265e-05
+ $W=1.71e-06	$X=300.63 $Y=108.695
Rf1431	GNDA#401	GNDA#405	0.597871	$MET1	$L=1.329e-05
+ $W=1.71e-06	$X=300.63 $Y=125.445
Rf1432	GNDA#405	GNDA#406	0.597871	$MET1	$L=1.329e-05
+ $W=1.71e-06	$X=307.275 $Y=138.735
Rf1433	GNDA#406	GNDA#407	2.261620	$MET1	$L=1.329e-05
+ $W=4.3e-07	$X=313.92 $Y=138.735
Rf1434	GNDA#407	GNDA#408	1.082321	$MET1	$L=6.32525e-06
+ $W=4.3e-07	$X=310.76 $Y=125.445
Rf1435	GNDA#359	GNDA#409	8.571112	$MET1	$L=3.685e-05
+ $W=3.2e-07	$X=158.235 $Y=4.615
Rf1436	GNDA#409	GNDA#410	33.651405	$MET1	$L=0.00013987
[...]
C1355	A#112	GNDA	2.88575e-16	$X=86.5145 $Y=58.511
C1356	A#116	GNDA	1.9845e-16	$X=86.5145 $Y=69.4255
C1357	net15#160	GNDA	4.76642e-17	$X=84.7195 $Y=26.3695
C1358	net15#171	GNDA	3.1833e-16	$X=87.4895 $Y=41.2445
C1359	net15#169	GNDA	4.38525e-16	$X=87.4895 $Y=37.5645
C1360	net17#80	GNDA	3.43503e-16	$X=87.4895 $Y=14.31
C1361	net17#81	GNDA	3.17716e-16	$X=87.4895 $Y=11.4945
C1362	net17#83	GNDA	1.92526e-16	$X=87.4895 $Y=24.5805
C1363	net10#20	GNDA	1.72728e-17	$X=85.927 $Y=135.6795
C1364	net10#18	GNDA	2.63548e-17	$X=89.7025 $Y=135.6795
C1365	net10#19	GNDA	1.77628e-16	$X=87.8145 $Y=136.2895
C1366	net12#8	GNDA	3.94694e-16	$X=90.5845 $Y=121.016
C1367	net12#12	GNDA	1.2894e-16	$X=90.5845 $Y=134.6005
C1368	net11#68	GNDA	4.93619e-16	$X=90.1645 $Y=71.4345
C1369	net23#69	GNDA	5.03752e-17	$X=87.3195 $Y=73.4045
C1370	net23#65	GNDA	4.37729e-16	$X=88.9745 $Y=72.4745
C1371	net15#175	GNDA	4.06667e-16	$X=92.0545 $Y=88.0675
C1372	net15#178	GNDA	5.70477e-16	$X=92.0545 $Y=84.2475
C1373	net17#85	GNDA	4.08571e-16	$X=92.0545 $Y=55.8415
C1374	net17#89	GNDA	1.98402e-16	$X=92.0545 $Y=69.4255
C1375	VDD3A#213	GNDA	7.5474e-16	$X=76.8545 $Y=123.1585
C1376	VDD3A#214	GNDA	3.01083e-16	$X=76.8545 $Y=133.059
C1377	VDD3A#212	GNDA	1.19735e-15	$X=92.5345 $Y=123.159
C1378	VDD3A#218	GNDA	9.17073e-16	$X=92.5345 $Y=133.0595
C1379	A#117	GNDA	2.87736e-16	$X=92.7545 $Y=85.3975
C1380	A#120	GNDA	2.64198e-16	$X=92.7545 $Y=83.357
C1381	A#122	GNDA	2.87736e-16	$X=92.7545 $Y=58.511
C1382	A#126	GNDA	1.9845e-16	$X=92.7545 $Y=69.4255
C1383	net15#181	GNDA	4.76642e-17	$X=90.9595 $Y=26.3695
C1384	net17#93	GNDA	2.53448e-16	$X=93.7295 $Y=39.9095
C1385	net17#91	GNDA	3.72801e-16	$X=93.7295 $Y=37.342
C1386	net15#191	GNDA	1.89756e-16	$X=93.7295 $Y=14.755
C1387	net15#192	GNDA	2.52894e-16	$X=93.7295 $Y=12.8295
C1388	net15#194	GNDA	1.16986e-16	$X=93.7295 $Y=24.5805
C1389	net17#97	GNDA	1.33197e-16	$X=96.2895 $Y=113.914
C1390	OUT#88	GNDA	4.38295e-16	$X=97.0595 $Y=100.076
C1391	OUT#93	GNDA	1.61845e-16	$X=97.0595 $Y=112.4555
C1392	net7#6	GNDA	2.28805e-16	$X=97.6895 $Y=123.771
C1393	net7#10	GNDA	1.65347e-16	$X=97.6895 $Y=134.4605
C1394	net11#74	GNDA	2.02669e-16	$X=96.2045 $Y=72.8645
C1395	net23#73	GNDA	2.38911e-17	$X=93.637 $Y=70.5045
C1396	net23#71	GNDA	2.51521e-17	$X=97.4125 $Y=70.5045
C1397	net23#72	GNDA	1.4382e-16	$X=95.5245 $Y=71.0445
C1398	net17#103	GNDA	9.62698e-17	$X=97.8295 $Y=113.914
C1399	net17#109	GNDA	3.38943e-16	$X=98.2945 $Y=86.7325
C1400	net17#112	GNDA	4.28338e-16	$X=98.2945 $Y=83.8025
C1401	net15#196	GNDA	3.38869e-16	$X=98.2945 $Y=57.1765
C1402	net15#200	GNDA	1.9845e-16	$X=98.2945 $Y=69.4255
C1403	OUT#94	GNDA	2.72487e-16	$X=98.4595 $Y=136.2395
C1404	A#127	GNDA	2.88575e-16	$X=98.9945 $Y=85.3975
C1405	A#130	GNDA	2.05278e-16	$X=98.9945 $Y=83.357
C1406	A#132	GNDA	2.88575e-16	$X=98.9945 $Y=58.511
C1407	A#136	GNDA	1.49618e-16	$X=98.9945 $Y=69.4255
C1408	net10#24	GNDA	3.64123e-16	$X=99.2295 $Y=122.061
C1409	net10#28	GNDA	2.17365e-16	$X=99.2295 $Y=134.4605
C1410	net15#201	GNDA	2.06782e-17	$X=99.0875 $Y=27.0795
C1411	net15#209	GNDA	2.06782e-17	$X=99.0865 $Y=25.6595
C1412	net15#202	GNDA	4.76775e-17	$X=97.1995 $Y=26.3695
C1413	net17#114	GNDA	9.62698e-17	$X=99.3695 $Y=113.914
C1414	net7#11	GNDA	3.24763e-16	$X=99.9295 $Y=123.771
C1415	net7#15	GNDA	2.17365e-16	$X=99.9295 $Y=134.4605
C1416	net15#213	GNDA	3.17906e-16	$X=99.9695 $Y=41.2445
C1417	net15#211	GNDA	4.49863e-16	$X=99.9695 $Y=37.5645
C1418	net17#122	GNDA	3.43852e-16	$X=99.9695 $Y=14.31
C1419	net17#123	GNDA	3.18476e-16	$X=99.9695 $Y=11.4945
C1420	net17#125	GNDA	1.92526e-16	$X=99.9695 $Y=24.5805
C1421	OUT#100	GNDA	3.97431e-16	$X=100.1395 $Y=100.076
C1422	OUT#105	GNDA	1.61845e-16	$X=100.1395 $Y=112.4555
C1423	net21#7	GNDA	1.3884e-16	$X=100.6995 $Y=135.849
C1424	net17#127	GNDA	1.332e-16	$X=100.9095 $Y=113.914
C1425	net12#13	GNDA	5.24057e-16	$X=101.4695 $Y=120.3515
C1426	net12#17	GNDA	1.6814e-16	$X=101.4695 $Y=134.4605
C1427	A#142	GNDA	6.24155e-17	$X=104.5345 $Y=73.462
C1428	A#137	GNDA	1.42e-16	$X=104.5345 $Y=85.3975
C1429	A#140	GNDA	3.83208e-17	$X=104.5345 $Y=83.357
C1430	A#143	GNDA	1.83315e-16	$X=101.7995 $Y=73.4045
C1431	A#144	GNDA	1.42e-16	$X=104.5345 $Y=58.511
C1432	A#148	GNDA	6.5596e-17	$X=104.5345 $Y=69.7105
C1433	A#150	GNDA	1.83315e-16	$X=101.7995 $Y=70.5045
C1434	VDD3A#225	GNDA	4.16551e-14	$X=31.243 $Y=83.1635
C1435	VDD3A#234	GNDA	3.15181e-15	$X=95.755 $Y=90.704
C1436	VDD3A#228	GNDA	1.28927e-15	$X=13.465 $Y=73.024
C1437	net22#5	GNDA	8.93153e-16	$X=111.1945 $Y=132.4515
C1438	net21#14	GNDA	8.45164e-16	$X=110.362 $Y=129.204
C1439	OUT#109	GNDA	7.95032e-15	$X=118.178 $Y=86.806
C1440	VDD3A#251	GNDA	1.07192e-15	$X=128.124 $Y=7.7545
C1441	VDD3A#252	GNDA	7.08392e-16	$X=153.1045 $Y=16.024
C1442	VDD3A#253	GNDA	2.23074e-16	$X=153.1045 $Y=32.9045
C1443	net8#10	GNDA	3.5846e-15	$X=152.168 $Y=98.234
C1444	net8#9	GNDA	2.97128e-15	$X=172.352 $Y=116.869
C1445	net8#8	GNDA	3.01845e-15	$X=188.8075 $Y=116.869
C1446	net8#7	GNDA	1.77158e-15	$X=197.5345 $Y=131.7255
C1447	net8#5	GNDA	8.18635e-16	$X=206.0675 $Y=136.344
C1448	net8#11	GNDA	2.73349e-15	$X=130.252 $Y=98.234
C1449	net5#10	GNDA	3.80501e-15	$X=152.2615 $Y=49.7395
C1450	net5#9	GNDA	3.16485e-15	$X=172.477 $Y=69.6545
C1451	net5#8	GNDA	2.95948e-15	$X=188.9325 $Y=69.6545
C1452	net5#7	GNDA	1.70559e-15	$X=197.6595 $Y=83.723
C1453	net5#5	GNDA	8.19892e-16	$X=206.0985 $Y=88.079
C1454	net5#11	GNDA	2.79544e-15	$X=130.283 $Y=49.7395
C1455	net23#77	GNDA	4.40778e-15	$X=208.665 $Y=48.6855
C1456	net11#80	GNDA	5.71959e-15	$X=208.5755 $Y=96.483
C1457	net9#5	GNDA	9.08085e-16	$X=307.5945 $Y=132.1095
C1458	net9#11	GNDA	4.17215e-16	$X=307.5945 $Y=115.0175
C1459	net9#17	GNDA	4.17215e-16	$X=307.5945 $Y=98.268
C1460	net9#23	GNDA	4.17215e-16	$X=307.5945 $Y=81.5185
C1461	net9#29	GNDA	1.59035e-15	$X=307.5945 $Y=64.769
C1462	net9#35	GNDA	4.17215e-16	$X=307.5945 $Y=48.0195
C1463	net9#41	GNDA	4.17208e-16	$X=307.5945 $Y=31.27
C1464	net9#53	GNDA	7.97899e-16	$X=324.349 $Y=132.11
C1465	net9#59	GNDA	4.17208e-16	$X=324.349 $Y=115.018
C1466	net9#65	GNDA	4.17215e-16	$X=324.349 $Y=98.2685
C1467	net9#71	GNDA	1.60269e-15	$X=324.349 $Y=80.123
C1468	net9#77	GNDA	1.63492e-15	$X=324.349 $Y=49.416
C1469	net9#83	GNDA	4.17215e-16	$X=324.349 $Y=31.2705
C1470	net9#89	GNDA	4.47362e-16	$X=324.349 $Y=14.558
C1471	net9#95	GNDA	1.669e-15	$X=349.478 $Y=133.65
C1472	net9#101	GNDA	4.17215e-16	$X=341.1035 $Y=115.018
C1473	net9#107	GNDA	4.17215e-16	$X=341.1035 $Y=98.2685
C1474	net9#113	GNDA	4.17215e-16	$X=341.1035 $Y=81.519
C1475	net9#119	GNDA	4.17215e-16	$X=341.1035 $Y=64.7695
C1476	net9#125	GNDA	3.61727e-16	$X=341.1035 $Y=48.02
C1477	net9#131	GNDA	3.6172e-16	$X=341.1035 $Y=31.2705
C1478	net9#137	GNDA	4.47288e-16	$X=341.1035 $Y=14.558
C1479	net9#149	GNDA	3.61727e-16	$X=357.858 $Y=115.018
C1480	net9#155	GNDA	3.61727e-16	$X=357.858 $Y=98.2685
C1481	net9#161	GNDA	3.61727e-16	$X=357.858 $Y=81.519
C1482	net9#167	GNDA	3.61727e-16	$X=357.858 $Y=64.7695
C1483	net9#173	GNDA	3.61727e-16	$X=357.858 $Y=48.02
C1484	net9#179	GNDA	3.61727e-16	$X=357.858 $Y=31.2705
C1485	net9#185	GNDA	3.55717e-16	$X=357.858 $Y=14.558
C1486	net16#216	GNDA	3.19082e-15	$X=9.143 $Y=77.568
C1487	net2#36	GNDA	2.90439e-15	$X=22.9455 $Y=52.7695
C1488	BIAS#75	GNDA	7.57748e-16	$X=24.2485 $Y=66.5045
C1489	BIAS#80	GNDA	1.28276e-15	$X=14.0405 $Y=66.5045
C1490	net14#36	GNDA	2.33874e-15	$X=23.468 $Y=78.593
C1491	net3#106	GNDA	3.30066e-15	$X=30.235 $Y=56.7405
C1492	net3#105	GNDA	2.2274e-15	$X=30.235 $Y=66.7735
C1493	net3#99	GNDA	4.23235e-15	$X=12.753 $Y=76.264
C1494	net3#98	GNDA	1.18415e-15	$X=6.4745 $Y=86.4995
C1495	net3#89	GNDA	1.15022e-15	$X=24.8935 $Y=89.744
C1496	net3#94	GNDA	7.38094e-16	$X=13.761 $Y=89.744
C1497	net1#13	GNDA	3.52439e-15	$X=13.6895 $Y=45.4445
C1498	net1#10	GNDA	7.00419e-15	$X=30.928 $Y=51.315
C1499	net1#12	GNDA	9.69819e-16	$X=23.5145 $Y=45.4445
C1500	net2#42	GNDA	1.45988e-14	$X=14.687 $Y=39.932
C1501	net6#101	GNDA	1.0735e-15	$X=29.585 $Y=27.8545
C1502	net6#102	GNDA	8.3562e-16	$X=18.3875 $Y=27.8545
C1503	net6#108	GNDA	6.13888e-15	$X=23.7655 $Y=13.6845
C1504	net2#47	GNDA	3.26797e-15	$X=28.85 $Y=11.9045
C1505	net2#48	GNDA	9.74272e-15	$X=12.006 $Y=15.019
C1506	net7#16	GNDA	3.54064e-15	$X=13.6895 $Y=10.1245
C1507	net7#17	GNDA	1.28272e-15	$X=23.959 $Y=10.1245
C1508	net6#112	GNDA	3.24687e-15	$X=28.85 $Y=43.6645
C1509	net6#113	GNDA	1.0737e-14	$X=9.2225 $Y=46.591
C1510	net14#46	GNDA	4.54174e-15	$X=15.1145 $Y=136.379
C1511	net14#42	GNDA	7.01016e-15	$X=44.7595 $Y=132.324
C1512	net14#44	GNDA	2.85213e-15	$X=32.4225 $Y=136.379
C1513	net16#222	GNDA	5.96582e-15	$X=37.9355 $Y=134.599
C1514	net16#223	GNDA	4.14308e-15	$X=20.123 $Y=134.599
C1515	OUT#111	GNDA	1.62885e-14	$X=36.997 $Y=129.7435
C1516	net16#226	GNDA	1.15539e-15	$X=43.28 $Y=117.699
C1517	net16#227	GNDA	1.66905e-15	$X=24.09 $Y=117.699
C1518	VDD3A#275	GNDA	1.35583e-14	$X=26.0215 $Y=106.6585
C1519	net14#51	GNDA	4.02032e-15	$X=11.7545 $Y=102.439
C1520	net14#47	GNDA	1.1204e-14	$X=43.9205 $Y=104.9875
C1521	net14#49	GNDA	5.10953e-15	$X=27.3825 $Y=102.439
C1522	net16#240	GNDA	4.18014e-15	$X=41.2955 $Y=100.659
C1523	net16#241	GNDA	5.27296e-15	$X=25.163 $Y=100.659
C1524	OUT#121	GNDA	1.50064e-14	$X=43.272 $Y=99.114
C1525	net1#14	GNDA	3.88602e-15	$X=64.5535 $Y=94.4335
C1526	net11#88	GNDA	5.96131e-15	$X=69.3145 $Y=136.129
C1527	net20#33	GNDA	5.63462e-15	$X=64.993 $Y=133.849
C1528	net20#37	GNDA	1.36106e-16	$X=62.4795 $Y=105.203
C1529	net20#38	GNDA	1.41629e-16	$X=62.4795 $Y=113.1425
C1530	net20#28	GNDA	3.30538e-16	$X=70.595 $Y=117.839
C1531	net20#29	GNDA	2.15592e-16	$X=67.03 $Y=117.839
C1532	net20#30	GNDA	2.79505e-16	$X=62.4435 $Y=117.839
C1533	net10#33	GNDA	8.33398e-16	$X=93.2945 $Y=133.314
C1534	net10#38	GNDA	3.77882e-16	$X=79.314 $Y=136.879
C1535	net10#29	GNDA	7.10444e-15	$X=93.2955 $Y=125.1835
C1536	net10#34	GNDA	4.73051e-16	$X=87.69 $Y=136.879
C1537	net10#35	GNDA	2.64876e-16	$X=82.8795 $Y=136.879
C1538	net12#26	GNDA	5.18846e-17	$X=63.342 $Y=114.6195
C1539	net12#23	GNDA	9.53417e-16	$X=73.1875 $Y=116.049
C1540	net12#27	GNDA	2.83295e-17	$X=67.1565 $Y=114.6195
C1541	net12#18	GNDA	4.34344e-15	$X=90.8525 $Y=119.334
C1542	net12#21	GNDA	1.72995e-15	$X=80.6435 $Y=119.839
C1543	net7#23	GNDA	2.46463e-15	$X=80.23 $Y=111.867
C1544	net7#19	GNDA	4.29944e-15	$X=103.89 $Y=120.1615
C1545	net21#28	GNDA	8.59335e-16	$X=101.817 $Y=136.139
C1546	net21#27	GNDA	3.95198e-16	$X=103.6945 $Y=131.6145
C1547	net21#30	GNDA	6.10243e-16	$X=98.674 $Y=136.1395
C1548	net21#25	GNDA	2.66031e-16	$X=107.6135 $Y=130.274
C1549	net15#217	GNDA	3.90964e-15	$X=101.2605 $Y=89.244
C1550	net15#218	GNDA	1.21178e-15	$X=89 $Y=89.244
C1551	net15#219	GNDA	2.58231e-15	$X=79.575 $Y=89.244
C1552	net15#220	GNDA	2.69902e-15	$X=67.095 $Y=89.244
C1553	net15#221	GNDA	3.15853e-15	$X=53.7855 $Y=89.244
C1554	A#151	GNDA	1.93947e-14	$X=73.69 $Y=61.3645
C1555	net15#223	GNDA	3.55913e-15	$X=104.38 $Y=56.4445
C1556	net15#224	GNDA	1.72839e-15	$X=95.24 $Y=56.4445
C1557	net15#225	GNDA	3.39907e-15	$X=85.815 $Y=56.4445
C1558	net15#226	GNDA	3.39907e-15	$X=73.335 $Y=56.4445
C1559	net15#227	GNDA	4.73429e-15	$X=58.4655 $Y=56.4445
C1560	net17#133	GNDA	3.95637e-15	$X=45.7095 $Y=54.6645
C1561	net17#134	GNDA	1.22982e-15	$X=57.619 $Y=54.6645
C1562	net17#135	GNDA	2.4584e-15	$X=67.094 $Y=54.6645
C1563	net17#136	GNDA	2.45834e-15	$X=79.574 $Y=54.6645
C1564	net17#137	GNDA	2.87558e-15	$X=93.0595 $Y=54.6645
C1565	A#183	GNDA	3.87758e-15	$X=27.99 $Y=74.484
C1566	A#167	GNDA	2.1017e-14	$X=73.4425 $Y=82.544
C1567	net15#229	GNDA	2.56658e-15	$X=105.7 $Y=42.2895
C1568	net15#230	GNDA	1.20422e-15	$X=96.915 $Y=42.2895
C1569	net15#231	GNDA	2.37407e-15	$X=87.49 $Y=42.2895
C1570	net15#232	GNDA	2.37406e-15	$X=75.01 $Y=42.2895
C1571	net15#233	GNDA	3.2442e-15	$X=60.318 $Y=42.2895
C1572	net17#139	GNDA	4.85733e-15	$X=47.7395 $Y=40.5095
C1573	net17#140	GNDA	1.69703e-15	$X=59.294 $Y=40.5095
C1574	net17#141	GNDA	3.35445e-15	$X=68.769 $Y=40.5095
C1575	net17#142	GNDA	3.35444e-15	$X=81.249 $Y=40.5095
C1576	net17#143	GNDA	3.81715e-15	$X=94.5565 $Y=40.5095
C1577	net15#235	GNDA	1.26079e-15	$X=104.445 $Y=26.3995
C1578	net15#236	GNDA	7.22484e-17	$X=95.835 $Y=26.3995
C1579	net15#237	GNDA	1.24284e-16	$X=90.96 $Y=26.3995
C1580	net15#238	GNDA	1.23699e-16	$X=84.72 $Y=26.3995
C1581	net15#239	GNDA	1.24284e-16	$X=78.48 $Y=26.3995
C1582	net15#240	GNDA	1.23699e-16	$X=72.24 $Y=26.3995
C1583	net15#241	GNDA	1.24284e-16	$X=66 $Y=26.3995
C1584	net15#242	GNDA	1.23699e-16	$X=59.76 $Y=26.3995
C1585	net15#243	GNDA	3.98335e-16	$X=51.935 $Y=26.3995
C1586	net15#245	GNDA	5.09058e-15	$X=102.5805 $Y=12.2295
C1587	net15#246	GNDA	1.714e-15	$X=90.675 $Y=12.2295
C1588	net15#247	GNDA	3.37333e-15	$X=81.25 $Y=12.2295
C1589	net15#248	GNDA	3.37273e-15	$X=68.77 $Y=12.2295
C1590	net15#249	GNDA	3.72268e-15	$X=55.638 $Y=12.2295
C1591	net17#145	GNDA	5.51618e-15	$X=50.8595 $Y=10.4495
C1592	net17#146	GNDA	1.40151e-15	$X=65.534 $Y=10.4495
C1593	net17#147	GNDA	2.6917e-15	$X=75.009 $Y=10.4495
C1594	net17#148	GNDA	2.7809e-15	$X=87.489 $Y=10.4495
C1595	net17#149	GNDA	2.44464e-15	$X=99.2365 $Y=10.4495
C1596	net17#159	GNDA	6.39337e-15	$X=108.299 $Y=83.9965
C1597	net17#158	GNDA	1.48764e-15	$X=106.147 $Y=93.599
C1598	net17#157	GNDA	2.00887e-15	$X=90.4095 $Y=98.6425
C1599	net17#156	GNDA	1.03865e-15	$X=90.4095 $Y=109.2305
C1600	net17#166	GNDA	6.77734e-15	$X=48.5695 $Y=87.464
C1601	net17#151	GNDA	8.68178e-16	$X=97.715 $Y=114.274
C1602	net17#162	GNDA	3.25983e-15	$X=98.122 $Y=87.464
C1603	net17#163	GNDA	3.37511e-15	$X=85.815 $Y=87.464
C1604	net17#164	GNDA	3.40578e-15	$X=73.335 $Y=87.464
C1605	net17#165	GNDA	1.86321e-15	$X=63.5995 $Y=87.464
C1606	OUT#137	GNDA	6.48909e-16	$X=108.3655 $Y=133.499
C1607	OUT#138	GNDA	6.7387e-16	$X=103.8335 $Y=136.919
C1608	OUT#139	GNDA	9.00539e-16	$X=99.6855 $Y=136.919
C1609	OUT#148	GNDA	5.71566e-15	$X=92.9005 $Y=99.3515
C1610	net11#103	GNDA	1.63068e-15	$X=119.067 $Y=71.5595
C1611	net11#106	GNDA	1.55071e-15	$X=134.3295 $Y=71.564
C1612	net11#107	GNDA	2.45908e-15	$X=151.322 $Y=82.964
C1613	net11#108	GNDA	2.40541e-15	$X=173.887 $Y=82.964
C1614	net11#109	GNDA	1.31193e-15	$X=191.009 $Y=93.099
C1615	net11#92	GNDA	2.91719e-15	$X=44.7985 $Y=72.3445
C1616	net11#93	GNDA	5.26806e-16	$X=54.211 $Y=72.3445
C1617	net11#94	GNDA	9.01279e-16	$X=58.979 $Y=72.3445
C1618	net11#95	GNDA	1.08516e-15	$X=65.219 $Y=72.3445
C1619	net11#96	GNDA	9.01279e-16	$X=71.459 $Y=72.3445
C1620	net11#97	GNDA	1.08516e-15	$X=77.699 $Y=72.3445
C1621	net11#98	GNDA	9.01279e-16	$X=83.939 $Y=72.3445
C1622	net11#99	GNDA	1.08516e-15	$X=90.179 $Y=72.3445
C1623	net11#100	GNDA	1.7866e-15	$X=98.88 $Y=72.3445
C1624	net23#91	GNDA	2.40037e-15	$X=114.0945 $Y=70.3995
C1625	net23#94	GNDA	1.46181e-15	$X=134.2955 $Y=69.2345
C1626	net23#95	GNDA	2.38313e-15	$X=151.205 $Y=59.5195
C1627	net23#96	GNDA	2.56238e-15	$X=173.718 $Y=59.5195
C1628	net23#97	GNDA	1.14552e-15	$X=191.5215 $Y=49.7245
C1629	net23#82	GNDA	2.54413e-15	$X=43.914 $Y=71.564
C1630	net23#83	GNDA	7.00397e-16	$X=52.744 $Y=71.564
C1631	net23#84	GNDA	8.90371e-16	$X=57.814 $Y=71.564
C1632	net23#85	GNDA	1.09679e-15	$X=64.054 $Y=71.564
C1633	net23#86	GNDA	8.90371e-16	$X=70.294 $Y=71.564
C1634	net23#87	GNDA	1.09679e-15	$X=76.534 $Y=71.564
C1635	net23#88	GNDA	8.90371e-16	$X=82.774 $Y=71.564
C1636	net23#89	GNDA	1.09679e-15	$X=89.014 $Y=71.564
C1637	net23#90	GNDA	2.07594e-15	$X=98.5365 $Y=71.5645
C1638	net23#93	GNDA	1.34913e-15	$X=124.9875 $Y=69.2345
C1639	BIAS#1	GNDA	3.19365e-16	$X=10.8445 $Y=59.082
C1640	VDD3A#1	GNDA	9.9132e-17	$X=11.1595 $Y=125.4415
C1641	VDD3A#4	GNDA	7.36377e-17	$X=11.1595 $Y=109.8165
C1642	net3#4	GNDA	2.3274e-16	$X=11.6745 $Y=81.8615
C1643	BIAS#4	GNDA	2.29362e-16	$X=12.3845 $Y=59.082
C1644	net3#7	GNDA	2.32735e-16	$X=13.2145 $Y=81.8615
C1645	net16#4	GNDA	5.05701e-16	$X=13.3995 $Y=109.8165
C1646	BIAS#7	GNDA	2.32215e-16	$X=13.9245 $Y=59.082
C1647	net3#10	GNDA	2.88376e-16	$X=14.7545 $Y=81.8615
C1648	BIAS#10	GNDA	2.87856e-16	$X=15.4645 $Y=59.082
C1649	net16#7	GNDA	4.73429e-16	$X=15.6395 $Y=125.4415
C1650	net16#10	GNDA	4.90979e-16	$X=15.6395 $Y=109.8165
C1651	net6#4	GNDA	4.88525e-16	$X=15.8695 $Y=20.432
C1652	net16#13	GNDA	3.2305e-16	$X=17.8795 $Y=125.4415
C1653	net16#16	GNDA	4.90979e-16	$X=17.8795 $Y=109.8165
C1654	net6#7	GNDA	4.69041e-16	$X=18.1095 $Y=35.137
C1655	net6#10	GNDA	3.23405e-16	$X=18.1095 $Y=20.432
C1656	net16#19	GNDA	4.67044e-16	$X=20.1195 $Y=125.4415
C1657	net16#22	GNDA	4.90979e-16	$X=20.1195 $Y=109.8165
C1658	net6#13	GNDA	4.75425e-16	$X=20.3495 $Y=35.137
C1659	net6#16	GNDA	4.67418e-16	$X=20.3495 $Y=20.432
C1660	net16#25	GNDA	4.90926e-16	$X=22.3595 $Y=125.4415
C1661	net16#28	GNDA	4.73479e-16	$X=22.3595 $Y=109.8165
C1662	net6#19	GNDA	3.25046e-16	$X=22.5895 $Y=35.137
C1663	net6#22	GNDA	4.73803e-16	$X=22.5895 $Y=20.432
C1664	BIAS#13	GNDA	4.83209e-16	$X=23.2295 $Y=59.222
C1665	net3#13	GNDA	4.82354e-16	$X=23.9395 $Y=81.8615
C1666	net16#31	GNDA	4.73429e-16	$X=24.5995 $Y=125.4415
C1667	net16#34	GNDA	3.23081e-16	$X=24.5995 $Y=109.8165
C1668	BIAS#16	GNDA	4.19727e-16	$X=24.7695 $Y=59.222
C1669	net6#25	GNDA	4.8377e-16	$X=24.8295 $Y=35.137
C1670	net6#28	GNDA	3.38127e-16	$X=24.8295 $Y=20.432
C1671	net3#16	GNDA	4.40477e-16	$X=25.4795 $Y=81.8615
C1672	BIAS#19	GNDA	4.16874e-16	$X=26.3095 $Y=59.222
C1673	net16#37	GNDA	3.2305e-16	$X=26.8395 $Y=125.4415
C1674	net16#40	GNDA	4.67094e-16	$X=26.8395 $Y=109.8165
C1675	net3#19	GNDA	4.32174e-16	$X=27.0195 $Y=81.8615
C1676	net3#22	GNDA	4.8949e-16	$X=28.5595 $Y=81.8615
C1677	net16#43	GNDA	4.67044e-16	$X=29.0795 $Y=125.4415
C1678	net16#46	GNDA	4.90979e-16	$X=29.0795 $Y=109.8165
C1679	net16#49	GNDA	4.90926e-16	$X=31.3195 $Y=125.4415
C1680	net16#52	GNDA	4.73479e-16	$X=31.3195 $Y=109.8165
C1681	net16#55	GNDA	4.90926e-16	$X=33.5595 $Y=125.4415
C1682	net16#58	GNDA	3.23081e-16	$X=33.5595 $Y=109.8165
C1683	net16#61	GNDA	4.90926e-16	$X=35.7995 $Y=125.4415
C1684	net16#64	GNDA	4.67094e-16	$X=35.7995 $Y=109.8165
C1685	net16#67	GNDA	5.05655e-16	$X=38.0395 $Y=125.4415
C1686	net16#70	GNDA	5.05701e-16	$X=38.0395 $Y=109.8165
C1687	VDD3A#7	GNDA	9.9132e-17	$X=40.2795 $Y=125.4415
C1688	VDD3A#10	GNDA	7.36377e-17	$X=40.2795 $Y=109.8165
C1689	net15#4	GNDA	7.70733e-16	$X=53.5205 $Y=18.977
C1690	net23#4	GNDA	1.04322e-15	$X=58.0855 $Y=63.822
C1691	net15#7	GNDA	7.72877e-16	$X=59.7605 $Y=33.762
C1692	net15#10	GNDA	9.78849e-16	$X=59.7605 $Y=18.977
C1693	net15#13	GNDA	9.92974e-16	$X=66.0005 $Y=33.762
C1694	net15#16	GNDA	7.58724e-16	$X=66.0005 $Y=18.977
C1695	net20#4	GNDA	1.09022e-15	$X=68.3955 $Y=125.7215
C1696	net23#10	GNDA	1.04322e-15	$X=70.5655 $Y=63.822
C1697	net15#19	GNDA	7.72877e-16	$X=72.2405 $Y=33.762
C1698	net15#22	GNDA	9.78849e-16	$X=72.2405 $Y=18.977
C1699	net11#13	GNDA	1.04322e-15	$X=76.805 $Y=63.822
C1700	net15#25	GNDA	9.92973e-16	$X=78.48 $Y=33.762
C1701	net15#28	GNDA	7.58724e-16	$X=78.48 $Y=18.977
C1702	net15#31	GNDA	7.72877e-16	$X=84.72 $Y=33.762
C1703	net15#34	GNDA	9.78849e-16	$X=84.72 $Y=18.977
C1704	net10#4	GNDA	1.08867e-15	$X=87.815 $Y=128.9965
C1705	net11#19	GNDA	1.04322e-15	$X=89.285 $Y=63.822
C1706	net15#37	GNDA	9.92973e-16	$X=90.96 $Y=33.762
C1707	net15#40	GNDA	7.58724e-16	$X=90.96 $Y=18.977
C1708	net23#22	GNDA	1.0424e-15	$X=95.525 $Y=63.822
C1709	net17#4	GNDA	4.23431e-16	$X=97.8295 $Y=106.8515
C1710	OUT#1	GNDA	5.47728e-16	$X=98.4595 $Y=128.8565
C1711	net15#43	GNDA	7.849e-16	$X=97.2 $Y=33.762
C1712	net15#46	GNDA	9.90857e-16	$X=97.2 $Y=18.977
C1713	net17#10	GNDA	4.99671e-16	$X=100.9095 $Y=106.8515
C1714	VDD3A#13	GNDA	2.76416e-16	$X=111.1945 $Y=134.471
C1715	net21#4	GNDA	2.92709e-16	$X=111.1945 $Y=127.416
C1716	net6#124	GNDA	2.57991e-15	$X=7.24 $Y=28.265
C1717	net16#246	GNDA	2.87149e-15	$X=5.84 $Y=117.6645
C1718	net15#257	GNDA	2.69618e-15	$X=40.42 $Y=26.83
C1719	net14#55	GNDA	2.50597e-15	$X=27.2885 $Y=96.414
C1720	net1#20	GNDA	7.18855e-15	$X=31.681 $Y=82.0215
C1721	net1#18	GNDA	1.00832e-14	$X=31.681 $Y=27.0835
C1722	net7#28	GNDA	1.20062e-14	$X=33.462 $Y=71.5875
C1723	net11#123	GNDA	4.44666e-15	$X=84.6175 $Y=102.039
C1724	net11#124	GNDA	4.44999e-15	$X=102.953 $Y=102.039
C1725	net11#125	GNDA	1.63555e-15	$X=112.8695 $Y=79.975
C1726	net11#131	GNDA	4.62391e-15	$X=274.232 $Y=93.009
C1727	net11#132	GNDA	2.56275e-15	$X=295.8195 $Y=73.955
C1728	net17#176	GNDA	1.47815e-15	$X=122.633 $Y=14.595
C1729	OUT#166	GNDA	1.70184e-15	$X=120.14 $Y=64.0245
*
*
.ENDS bandgap_su
*
