*
*
*
*                       LINUX           Tue Aug 13 03:40:16 2024
*
*
*
*  PROGRAM  advgen
*
*  Name           : advgen - Quantus - (64-bit)
*  Version        : 23.1.0-p075
*  Build Date     : Tue Sep 26 09:11:43 PDT 2023
*
*  HSPICE LIBRARY
*
* GLOBAL_TEMPERATURE 27
*  OPERATING_TEMPERATURE 27
*  QRC_TECH_DIR /home/saul/pkg/xfab/XKIT/xh018/cadence/v9_0/QRC_pvs/v9_0_1/XH018_1143/QRC-Typ 
*
*!LENGTH_UNITS METERS
*
*
*
*
*       SUBCIRCUIT DEFINITIONS
*
.SUBCKT MOSVC3 G NW SB
.ENDS
*
.SUBCKT nedia D G S SB
.ENDS
*

*
.SUBCKT current_source_gm_10_en_r BIAS EN FB GNDA GNDHV IN OUT PACTIVE VDD3A
+ VDDHV VSUBHV
*
*
*  caps2d version: 10
*
*       SUBCIRCUIT CALLS
*
XXC0 VDD3A GNDA GNDA MOSVC3
+ w=2e-05 l=3e-05 model=mosvc3
XXC0@2 VDD3A GNDA GNDA MOSVC3
+ w=2e-05 l=3e-05 model=mosvc3
XXC0@1 VDD3A GNDA GNDA MOSVC3
+ w=2e-05 l=3e-05 model=mosvc3
XXC0@3 VDD3A GNDA GNDA MOSVC3
+ w=2e-05 l=3e-05 model=mosvc3
XMM0 OUT VA FB VSUBHV nedia
+ w=0.0001 l=1.25e-06 adio=1.01941e-09 pdio=4.39938e-05 extlay=1
XMM0@3 OUT VA FB VSUBHV nedia
+ w=0.0001 l=1.25e-06 adio=1.01941e-09 pdio=4.39938e-05 extlay=1
XMM0@6 OUT VA FB VSUBHV nedia
+ w=0.0001 l=1.25e-06 adio=1.01941e-09 pdio=4.39938e-05 extlay=1
XMM0@1 OUT VA FB VSUBHV nedia
+ w=0.0001 l=1.25e-06 adio=1.01941e-09 pdio=4.39938e-05 extlay=1
XMM0@2 OUT VA FB VSUBHV nedia
+ w=0.0001 l=1.25e-06 adio=1.01941e-09 pdio=4.39938e-05 extlay=1
XMM0@7 OUT VA FB VSUBHV nedia
+ w=0.0001 l=1.25e-06 adio=1.01941e-09 pdio=4.39938e-05 extlay=1
XMM0@4 OUT VA FB VSUBHV nedia
+ w=0.0001 l=1.25e-06 adio=1.01941e-09 pdio=4.39938e-05 extlay=1
XMM0@5 OUT VA FB VSUBHV nedia
+ w=0.0001 l=1.25e-06 adio=1.01941e-09 pdio=4.39938e-05 extlay=1
XMM1 VA VB GNDHV VSUBHV nedia
+ w=5e-05 l=1.25e-06 adio=1.08602e-09 pdio=0.00013535 extlay=1
*
*       TRANSISTOR CARDS
*
*
MMM34	net13	PACTIVE	GNDA	GNDA	ne3	L=3.5e-07	W=2e-06
+ AD=9.6e-13	AS=9.6e-13	PD=4.96e-06	PS=4.96e-06
+ NRD=0.0865	NRS=0.0865
MMM25	net16	EN	GNDA	GNDA	ne3	L=3.5e-07	W=2e-06
+ AD=9.6e-13	AS=9.6e-13	PD=4.96e-06	PS=4.96e-06
+ NRD=0.0865	NRS=0.0865
MMM2@1	net9	net7	GNDA	GNDA	ne3	L=1e-06	W=5e-06
+ AD=2.4e-12	AS=2.4e-12	PD=1.096e-05	PS=1.096e-05
+ NRD=0.0346	NRS=0.0346
MMM4@1	net7	net7	GNDA	GNDA	ne3	L=1e-06	W=5e-06
+ AD=2.4e-12	AS=2.4e-12	PD=1.096e-05	PS=1.096e-05
+ NRD=0.0346	NRS=0.0346
MMM4	net7	net7	GNDA	GNDA	ne3	L=1e-06	W=5e-06
+ AD=2.4e-12	AS=2.4e-12	PD=1.096e-05	PS=1.096e-05
+ NRD=0.0346	NRS=0.0346
MMM2	net9	net7	GNDA	GNDA	ne3	L=1e-06	W=5e-06
+ AD=2.4e-12	AS=2.4e-12	PD=1.096e-05	PS=1.096e-05
+ NRD=0.0346	NRS=0.0346
MMM27	GNDA	GNDA	GNDA	GNDA	ne3	L=1e-05	W=1e-05
+ AD=4.8e-12	AS=4.8e-12	PD=2.096e-05	PS=2.096e-05
+ NRD=0.0173	NRS=0.0173
MMM27@3	GNDA	GNDA	GNDA	GNDA	ne3	L=1e-05	W=1e-05
+ AD=4.8e-12	AS=4.8e-12	PD=2.096e-05	PS=2.096e-05
+ NRD=0.0173	NRS=0.0173
MMM21@1	net14	net12	GNDA	GNDA	ne3	L=1e-05	W=1e-05
+ AD=4.8e-12	AS=4.8e-12	PD=2.096e-05	PS=2.096e-05
+ NRD=0.0173	NRS=0.0173
MMM21	net14	net12	GNDA	GNDA	ne3	L=1e-05	W=1e-05
+ AD=4.8e-12	AS=4.8e-12	PD=2.096e-05	PS=2.096e-05
+ NRD=0.0173	NRS=0.0173
MMM14	net12	net12	GNDA	GNDA	ne3	L=1e-05	W=1e-05
+ AD=4.8e-12	AS=4.8e-12	PD=2.096e-05	PS=2.096e-05
+ NRD=0.0173	NRS=0.0173
MMM14@1	net12	net12	GNDA	GNDA	ne3	L=1e-05	W=1e-05
+ AD=4.8e-12	AS=4.8e-12	PD=2.096e-05	PS=2.096e-05
+ NRD=0.0173	NRS=0.0173
MMM13@1	net5	net12	GNDA	GNDA	ne3	L=1e-05	W=1e-05
+ AD=4.8e-12	AS=4.8e-12	PD=2.096e-05	PS=2.096e-05
+ NRD=0.0173	NRS=0.0173
MMM13	net5	net12	GNDA	GNDA	ne3	L=1e-05	W=1e-05
+ AD=4.8e-12	AS=4.8e-12	PD=2.096e-05	PS=2.096e-05
+ NRD=0.0173	NRS=0.0173
MMM27@1	GNDA	GNDA	GNDA	GNDA	ne3	L=1e-05	W=1e-05
+ AD=4.8e-12	AS=4.8e-12	PD=2.096e-05	PS=2.096e-05
+ NRD=0.0173	NRS=0.0173
MMM27@2	GNDA	GNDA	GNDA	GNDA	ne3	L=1e-05	W=1e-05
+ AD=4.8e-12	AS=4.8e-12	PD=2.096e-05	PS=2.096e-05
+ NRD=0.0173	NRS=0.0173
MMM19@1	net4	BIAS	net5	GNDA	ne3	L=1e-05	W=1e-05
+ AD=2.7e-12	AS=4.8e-12	PD=1.054e-05	PS=2.096e-05
+ NRD=0.0173	NRS=0.0173
MMM19	net4	BIAS	net5	GNDA	ne3	L=1e-05	W=1e-05
+ AD=2.7e-12	AS=4.8e-12	PD=1.054e-05	PS=2.096e-05
+ NRD=0.0173	NRS=0.0173
MMM22@1	net15	BIAS	net14	GNDA	ne3	L=1e-05	W=1e-05
+ AD=2.7e-12	AS=4.8e-12	PD=1.054e-05	PS=2.096e-05
+ NRD=0.0173	NRS=0.0173
MMM22	net15	BIAS	net14	GNDA	ne3	L=1e-05	W=1e-05
+ AD=2.7e-12	AS=4.8e-12	PD=1.054e-05	PS=2.096e-05
+ NRD=0.0173	NRS=0.0173
MMM18	BIAS	BIAS	net12	GNDA	ne3	L=1e-05	W=1e-05
+ AD=2.7e-12	AS=4.8e-12	PD=1.054e-05	PS=2.096e-05
+ NRD=0.0173	NRS=0.0173
MMM18@1	BIAS	BIAS	net12	GNDA	ne3	L=1e-05	W=1e-05
+ AD=2.7e-12	AS=4.8e-12	PD=1.054e-05	PS=2.096e-05
+ NRD=0.0173	NRS=0.0173
MMM32@1	net9	net13	GNDA	GNDA	ne3	L=3.5e-07	W=5e-06
+ AD=1.35e-12	AS=2.4e-12	PD=5.54e-06	PS=1.096e-05
+ NRD=0.0346	NRS=0.0346
MMM32@2	net9	net13	GNDA	GNDA	ne3	L=3.5e-07	W=5e-06
+ AD=1.35e-12	AS=1.35e-12	PD=5.54e-06	PS=5.54e-06
+ NRD=0.0346	NRS=0.0346
MMM32	net9	net13	GNDA	GNDA	ne3	L=3.5e-07	W=5e-06
+ AD=1.35e-12	AS=1.35e-12	PD=5.54e-06	PS=5.54e-06
+ NRD=0.0346	NRS=0.0346
MMM32@3	net9	net13	GNDA	GNDA	ne3	L=3.5e-07	W=5e-06
+ AD=1.35e-12	AS=2.4e-12	PD=5.54e-06	PS=1.096e-05
+ NRD=0.0346	NRS=0.0346
MMM24@2	net12	net16	GNDA	GNDA	ne3	L=3.5e-07	W=5e-06
+ AD=1.35e-12	AS=2.4e-12	PD=5.54e-06	PS=1.096e-05
+ NRD=0.0346	NRS=0.0346
MMM24	net12	net16	GNDA	GNDA	ne3	L=3.5e-07	W=5e-06
+ AD=1.35e-12	AS=1.35e-12	PD=5.54e-06	PS=5.54e-06
+ NRD=0.0346	NRS=0.0346
MMM24@3	net12	net16	GNDA	GNDA	ne3	L=3.5e-07	W=5e-06
+ AD=1.35e-12	AS=1.35e-12	PD=5.54e-06	PS=5.54e-06
+ NRD=0.0346	NRS=0.0346
MMM24@1	net12	net16	GNDA	GNDA	ne3	L=3.5e-07	W=5e-06
+ AD=1.35e-12	AS=2.4e-12	PD=5.54e-06	PS=1.096e-05
+ NRD=0.0346	NRS=0.0346
MMM6@1	VB	net9	GNDA	GNDA	ne3	L=5e-07	W=5e-06
+ AD=1.35e-12	AS=2.4e-12	PD=5.54e-06	PS=1.096e-05
+ NRD=0.0346	NRS=0.0346
MMM6@3	VB	net9	GNDA	GNDA	ne3	L=5e-07	W=5e-06
+ AD=1.35e-12	AS=1.35e-12	PD=5.54e-06	PS=5.54e-06
+ NRD=0.0346	NRS=0.0346
MMM6	VB	net9	GNDA	GNDA	ne3	L=5e-07	W=5e-06
+ AD=1.35e-12	AS=1.35e-12	PD=5.54e-06	PS=5.54e-06
+ NRD=0.0346	NRS=0.0346
MMM6@2	VB	net9	GNDA	GNDA	ne3	L=5e-07	W=5e-06
+ AD=1.35e-12	AS=2.4e-12	PD=5.54e-06	PS=1.096e-05
+ NRD=0.0346	NRS=0.0346
MMM8@1	GNDA	IN	net6	net6	pe3	L=5e-06	W=1e-05
+ AD=2.7e-12	AS=4.8e-12	PD=1.054e-05	PS=2.096e-05
+ NRD=0.0173	NRS=0.0173
MMM8	GNDA	IN	net6	net6	pe3	L=5e-06	W=1e-05
+ AD=2.7e-12	AS=2.7e-12	PD=1.054e-05	PS=1.054e-05
+ NRD=0.0173	NRS=0.0173
MMM8@11	GNDA	IN	net6	net6	pe3	L=5e-06	W=1e-05
+ AD=2.7e-12	AS=2.7e-12	PD=1.054e-05	PS=1.054e-05
+ NRD=0.0173	NRS=0.0173
MMM8@7	GNDA	IN	net6	net6	pe3	L=5e-06	W=1e-05
+ AD=2.7e-12	AS=2.7e-12	PD=1.054e-05	PS=1.054e-05
+ NRD=0.0173	NRS=0.0173
MMM8@12	GNDA	IN	net6	net6	pe3	L=5e-06	W=1e-05
+ AD=2.7e-12	AS=2.7e-12	PD=1.054e-05	PS=1.054e-05
+ NRD=0.0173	NRS=0.0173
MMM8@8	GNDA	IN	net6	net6	pe3	L=5e-06	W=1e-05
+ AD=2.7e-12	AS=2.7e-12	PD=1.054e-05	PS=1.054e-05
+ NRD=0.0173	NRS=0.0173
MMM8@6	GNDA	IN	net6	net6	pe3	L=5e-06	W=1e-05
+ AD=2.7e-12	AS=2.7e-12	PD=1.054e-05	PS=1.054e-05
+ NRD=0.0173	NRS=0.0173
MMM8@10	GNDA	IN	net6	net6	pe3	L=5e-06	W=1e-05
+ AD=2.7e-12	AS=2.7e-12	PD=1.054e-05	PS=1.054e-05
+ NRD=0.0173	NRS=0.0173
MMM8@3	GNDA	IN	net6	net6	pe3	L=5e-06	W=1e-05
+ AD=4.8e-12	AS=2.7e-12	PD=2.096e-05	PS=1.054e-05
+ NRD=0.0173	NRS=0.0173
MMM7@3	GNDA	net1	net10	net10	pe3	L=5e-06	W=1e-05
+ AD=2.7e-12	AS=4.8e-12	PD=1.054e-05	PS=2.096e-05
+ NRD=0.0173	NRS=0.0173
MMM7@11	GNDA	net1	net10	net10	pe3	L=5e-06	W=1e-05
+ AD=2.7e-12	AS=2.7e-12	PD=1.054e-05	PS=1.054e-05
+ NRD=0.0173	NRS=0.0173
MMM7@10	GNDA	net1	net10	net10	pe3	L=5e-06	W=1e-05
+ AD=2.7e-12	AS=2.7e-12	PD=1.054e-05	PS=1.054e-05
+ NRD=0.0173	NRS=0.0173
MMM7@2	GNDA	net1	net10	net10	pe3	L=5e-06	W=1e-05
+ AD=2.7e-12	AS=2.7e-12	PD=1.054e-05	PS=1.054e-05
+ NRD=0.0173	NRS=0.0173
MMM7@14	GNDA	net1	net10	net10	pe3	L=5e-06	W=1e-05
+ AD=2.7e-12	AS=2.7e-12	PD=1.054e-05	PS=1.054e-05
+ NRD=0.0173	NRS=0.0173
MMM7@17	GNDA	net1	net10	net10	pe3	L=5e-06	W=1e-05
+ AD=2.7e-12	AS=2.7e-12	PD=1.054e-05	PS=1.054e-05
+ NRD=0.0173	NRS=0.0173
MMM7@16	GNDA	net1	net10	net10	pe3	L=5e-06	W=1e-05
+ AD=2.7e-12	AS=2.7e-12	PD=1.054e-05	PS=1.054e-05
+ NRD=0.0173	NRS=0.0173
MMM7@12	GNDA	net1	net10	net10	pe3	L=5e-06	W=1e-05
+ AD=2.7e-12	AS=2.7e-12	PD=1.054e-05	PS=1.054e-05
+ NRD=0.0173	NRS=0.0173
MMM7@4	GNDA	net1	net10	net10	pe3	L=5e-06	W=1e-05
+ AD=4.8e-12	AS=2.7e-12	PD=2.096e-05	PS=1.054e-05
+ NRD=0.0173	NRS=0.0173
MMM7@1	GNDA	net1	net10	net10	pe3	L=5e-06	W=1e-05
+ AD=2.7e-12	AS=4.8e-12	PD=1.054e-05	PS=2.096e-05
+ NRD=0.0173	NRS=0.0173
MMM7@15	GNDA	net1	net10	net10	pe3	L=5e-06	W=1e-05
+ AD=2.7e-12	AS=2.7e-12	PD=1.054e-05	PS=1.054e-05
+ NRD=0.0173	NRS=0.0173
MMM7@6	GNDA	net1	net10	net10	pe3	L=5e-06	W=1e-05
+ AD=2.7e-12	AS=2.7e-12	PD=1.054e-05	PS=1.054e-05
+ NRD=0.0173	NRS=0.0173
MMM7@9	GNDA	net1	net10	net10	pe3	L=5e-06	W=1e-05
+ AD=2.7e-12	AS=2.7e-12	PD=1.054e-05	PS=1.054e-05
+ NRD=0.0173	NRS=0.0173
MMM7@8	GNDA	net1	net10	net10	pe3	L=5e-06	W=1e-05
+ AD=2.7e-12	AS=2.7e-12	PD=1.054e-05	PS=1.054e-05
+ NRD=0.0173	NRS=0.0173
MMM7@7	GNDA	net1	net10	net10	pe3	L=5e-06	W=1e-05
+ AD=2.7e-12	AS=2.7e-12	PD=1.054e-05	PS=1.054e-05
+ NRD=0.0173	NRS=0.0173
MMM7	GNDA	net1	net10	net10	pe3	L=5e-06	W=1e-05
+ AD=2.7e-12	AS=2.7e-12	PD=1.054e-05	PS=1.054e-05
+ NRD=0.0173	NRS=0.0173
MMM7@5	GNDA	net1	net10	net10	pe3	L=5e-06	W=1e-05
+ AD=2.7e-12	AS=2.7e-12	PD=1.054e-05	PS=1.054e-05
+ NRD=0.0173	NRS=0.0173
MMM7@13	GNDA	net1	net10	net10	pe3	L=5e-06	W=1e-05
+ AD=4.8e-12	AS=2.7e-12	PD=2.096e-05	PS=1.054e-05
+ NRD=0.0173	NRS=0.0173
MMM8@4	GNDA	IN	net6	net6	pe3	L=5e-06	W=1e-05
+ AD=2.7e-12	AS=4.8e-12	PD=1.054e-05	PS=2.096e-05
+ NRD=0.0173	NRS=0.0173
MMM8@9	GNDA	IN	net6	net6	pe3	L=5e-06	W=1e-05
+ AD=2.7e-12	AS=2.7e-12	PD=1.054e-05	PS=1.054e-05
+ NRD=0.0173	NRS=0.0173
MMM8@14	GNDA	IN	net6	net6	pe3	L=5e-06	W=1e-05
+ AD=2.7e-12	AS=2.7e-12	PD=1.054e-05	PS=1.054e-05
+ NRD=0.0173	NRS=0.0173
MMM8@2	GNDA	IN	net6	net6	pe3	L=5e-06	W=1e-05
+ AD=2.7e-12	AS=2.7e-12	PD=1.054e-05	PS=1.054e-05
+ NRD=0.0173	NRS=0.0173
MMM8@15	GNDA	IN	net6	net6	pe3	L=5e-06	W=1e-05
+ AD=2.7e-12	AS=2.7e-12	PD=1.054e-05	PS=1.054e-05
+ NRD=0.0173	NRS=0.0173
MMM8@17	GNDA	IN	net6	net6	pe3	L=5e-06	W=1e-05
+ AD=2.7e-12	AS=2.7e-12	PD=1.054e-05	PS=1.054e-05
+ NRD=0.0173	NRS=0.0173
MMM8@13	GNDA	IN	net6	net6	pe3	L=5e-06	W=1e-05
+ AD=2.7e-12	AS=2.7e-12	PD=1.054e-05	PS=1.054e-05
+ NRD=0.0173	NRS=0.0173
MMM8@16	GNDA	IN	net6	net6	pe3	L=5e-06	W=1e-05
+ AD=2.7e-12	AS=2.7e-12	PD=1.054e-05	PS=1.054e-05
+ NRD=0.0173	NRS=0.0173
MMM8@5	GNDA	IN	net6	net6	pe3	L=5e-06	W=1e-05
+ AD=4.8e-12	AS=2.7e-12	PD=2.096e-05	PS=1.054e-05
+ NRD=0.0173	NRS=0.0173
MMM29@3	VDD3A	VDD3A	VDD3A	VDD3A	pe3	L=5e-06	W=1e-05
+ AD=4.8e-12	AS=4.8e-12	PD=2.096e-05	PS=2.096e-05
+ NRD=0.0173	NRS=0.0173
MMM30@2	VDD3A	VDD3A	VDD3A	VDD3A	pe3	L=5e-06	W=1e-05
+ AD=4.8e-12	AS=4.8e-12	PD=2.096e-05	PS=2.096e-05
+ NRD=0.0173	NRS=0.0173
MMM29@1	VDD3A	VDD3A	VDD3A	VDD3A	pe3	L=5e-06	W=1e-05
+ AD=4.8e-12	AS=4.8e-12	PD=2.096e-05	PS=2.096e-05
+ NRD=0.0173	NRS=0.0173
MMM30	VDD3A	VDD3A	VDD3A	VDD3A	pe3	L=5e-06	W=1e-05
+ AD=4.8e-12	AS=4.8e-12	PD=2.096e-05	PS=2.096e-05
+ NRD=0.0173	NRS=0.0173
MMM5@9	net9	net10	net8	VDD3A	pe3	L=5e-06	W=1e-05
+ AD=4.8e-12	AS=4.8e-12	PD=2.096e-05	PS=2.096e-05
+ NRD=0.0173	NRS=0.0173
MMM3	net7	net6	net8	VDD3A	pe3	L=5e-06	W=1e-05
+ AD=4.8e-12	AS=4.8e-12	PD=2.096e-05	PS=2.096e-05
+ NRD=0.0173	NRS=0.0173
MMM10@15	net8	net4	VDD3A	VDD3A	pe3	L=5e-06	W=1e-05
+ AD=4.8e-12	AS=4.8e-12	PD=2.096e-05	PS=2.096e-05
+ NRD=0.0173	NRS=0.0173
MMM10@13	net8	net4	VDD3A	VDD3A	pe3	L=5e-06	W=1e-05
+ AD=4.8e-12	AS=4.8e-12	PD=2.096e-05	PS=2.096e-05
+ NRD=0.0173	NRS=0.0173
MMM3@7	net7	net6	net8	VDD3A	pe3	L=5e-06	W=1e-05
+ AD=4.8e-12	AS=4.8e-12	PD=2.096e-05	PS=2.096e-05
+ NRD=0.0173	NRS=0.0173
MMM5@4	net9	net10	net8	VDD3A	pe3	L=5e-06	W=1e-05
+ AD=4.8e-12	AS=4.8e-12	PD=2.096e-05	PS=2.096e-05
+ NRD=0.0173	NRS=0.0173
MMM10@10	net8	net4	VDD3A	VDD3A	pe3	L=5e-06	W=1e-05
+ AD=4.8e-12	AS=4.8e-12	PD=2.096e-05	PS=2.096e-05
+ NRD=0.0173	NRS=0.0173
MMM10@14	net8	net4	VDD3A	VDD3A	pe3	L=5e-06	W=1e-05
+ AD=4.8e-12	AS=4.8e-12	PD=2.096e-05	PS=2.096e-05
+ NRD=0.0173	NRS=0.0173
MMM5@11	net9	net10	net8	VDD3A	pe3	L=5e-06	W=1e-05
+ AD=4.8e-12	AS=4.8e-12	PD=2.096e-05	PS=2.096e-05
+ NRD=0.0173	NRS=0.0173
MMM3@13	net7	net6	net8	VDD3A	pe3	L=5e-06	W=1e-05
+ AD=4.8e-12	AS=4.8e-12	PD=2.096e-05	PS=2.096e-05
+ NRD=0.0173	NRS=0.0173
MMM10@12	net8	net4	VDD3A	VDD3A	pe3	L=5e-06	W=1e-05
+ AD=4.8e-12	AS=4.8e-12	PD=2.096e-05	PS=2.096e-05
+ NRD=0.0173	NRS=0.0173
MMM10@17	net8	net4	VDD3A	VDD3A	pe3	L=5e-06	W=1e-05
+ AD=4.8e-12	AS=4.8e-12	PD=2.096e-05	PS=2.096e-05
+ NRD=0.0173	NRS=0.0173
MMM3@9	net7	net6	net8	VDD3A	pe3	L=5e-06	W=1e-05
+ AD=4.8e-12	AS=4.8e-12	PD=2.096e-05	PS=2.096e-05
+ NRD=0.0173	NRS=0.0173
MMM5@12	net9	net10	net8	VDD3A	pe3	L=5e-06	W=1e-05
+ AD=4.8e-12	AS=4.8e-12	PD=2.096e-05	PS=2.096e-05
+ NRD=0.0173	NRS=0.0173
MMM10@18	net8	net4	VDD3A	VDD3A	pe3	L=5e-06	W=1e-05
+ AD=4.8e-12	AS=4.8e-12	PD=2.096e-05	PS=2.096e-05
+ NRD=0.0173	NRS=0.0173
MMM10@11	net8	net4	VDD3A	VDD3A	pe3	L=5e-06	W=1e-05
+ AD=4.8e-12	AS=4.8e-12	PD=2.096e-05	PS=2.096e-05
+ NRD=0.0173	NRS=0.0173
MMM5@3	net9	net10	net8	VDD3A	pe3	L=5e-06	W=1e-05
+ AD=4.8e-12	AS=4.8e-12	PD=2.096e-05	PS=2.096e-05
+ NRD=0.0173	NRS=0.0173
MMM3@5	net7	net6	net8	VDD3A	pe3	L=5e-06	W=1e-05
+ AD=4.8e-12	AS=4.8e-12	PD=2.096e-05	PS=2.096e-05
+ NRD=0.0173	NRS=0.0173
MMM10@19	net8	net4	VDD3A	VDD3A	pe3	L=5e-06	W=1e-05
+ AD=4.8e-12	AS=4.8e-12	PD=2.096e-05	PS=2.096e-05
+ NRD=0.0173	NRS=0.0173
MMM10	net8	net4	VDD3A	VDD3A	pe3	L=5e-06	W=1e-05
+ AD=4.8e-12	AS=4.8e-12	PD=2.096e-05	PS=2.096e-05
+ NRD=0.0173	NRS=0.0173
MMM3@4	net7	net6	net8	VDD3A	pe3	L=5e-06	W=1e-05
+ AD=4.8e-12	AS=4.8e-12	PD=2.096e-05	PS=2.096e-05
+ NRD=0.0173	NRS=0.0173
MMM5@2	net9	net10	net8	VDD3A	pe3	L=5e-06	W=1e-05
+ AD=4.8e-12	AS=4.8e-12	PD=2.096e-05	PS=2.096e-05
+ NRD=0.0173	NRS=0.0173
MMM11@1	net10	net4	VDD3A	VDD3A	pe3	L=5e-06	W=1e-05
+ AD=4.8e-12	AS=4.8e-12	PD=2.096e-05	PS=2.096e-05
+ NRD=0.0173	NRS=0.0173
MMM9@1	net6	net4	VDD3A	VDD3A	pe3	L=5e-06	W=1e-05
+ AD=4.8e-12	AS=4.8e-12	PD=2.096e-05	PS=2.096e-05
+ NRD=0.0173	NRS=0.0173
MMM5@7	net9	net10	net8	VDD3A	pe3	L=5e-06	W=1e-05
+ AD=4.8e-12	AS=4.8e-12	PD=2.096e-05	PS=2.096e-05
+ NRD=0.0173	NRS=0.0173
MMM3@3	net7	net6	net8	VDD3A	pe3	L=5e-06	W=1e-05
+ AD=4.8e-12	AS=4.8e-12	PD=2.096e-05	PS=2.096e-05
+ NRD=0.0173	NRS=0.0173
MMM12@1	net4	net4	VDD3A	VDD3A	pe3	L=5e-06	W=1e-05
+ AD=4.8e-12	AS=4.8e-12	PD=2.096e-05	PS=2.096e-05
+ NRD=0.0173	NRS=0.0173
MMM12	net4	net4	VDD3A	VDD3A	pe3	L=5e-06	W=1e-05
+ AD=4.8e-12	AS=4.8e-12	PD=2.096e-05	PS=2.096e-05
+ NRD=0.0173	NRS=0.0173
MMM3@11	net7	net6	net8	VDD3A	pe3	L=5e-06	W=1e-05
+ AD=4.8e-12	AS=4.8e-12	PD=2.096e-05	PS=2.096e-05
+ NRD=0.0173	NRS=0.0173
MMM5@6	net9	net10	net8	VDD3A	pe3	L=5e-06	W=1e-05
+ AD=4.8e-12	AS=4.8e-12	PD=2.096e-05	PS=2.096e-05
+ NRD=0.0173	NRS=0.0173
MMM9	net6	net4	VDD3A	VDD3A	pe3	L=5e-06	W=1e-05
+ AD=4.8e-12	AS=4.8e-12	PD=2.096e-05	PS=2.096e-05
+ NRD=0.0173	NRS=0.0173
MMM11	net10	net4	VDD3A	VDD3A	pe3	L=5e-06	W=1e-05
+ AD=4.8e-12	AS=4.8e-12	PD=2.096e-05	PS=2.096e-05
+ NRD=0.0173	NRS=0.0173
MMM5	net9	net10	net8	VDD3A	pe3	L=5e-06	W=1e-05
+ AD=4.8e-12	AS=4.8e-12	PD=2.096e-05	PS=2.096e-05
+ NRD=0.0173	NRS=0.0173
MMM3@2	net7	net6	net8	VDD3A	pe3	L=5e-06	W=1e-05
+ AD=4.8e-12	AS=4.8e-12	PD=2.096e-05	PS=2.096e-05
+ NRD=0.0173	NRS=0.0173
MMM10@5	net8	net4	VDD3A	VDD3A	pe3	L=5e-06	W=1e-05
+ AD=4.8e-12	AS=4.8e-12	PD=2.096e-05	PS=2.096e-05
+ NRD=0.0173	NRS=0.0173
MMM10@6	net8	net4	VDD3A	VDD3A	pe3	L=5e-06	W=1e-05
+ AD=4.8e-12	AS=4.8e-12	PD=2.096e-05	PS=2.096e-05
+ NRD=0.0173	NRS=0.0173
MMM3@1	net7	net6	net8	VDD3A	pe3	L=5e-06	W=1e-05
+ AD=4.8e-12	AS=4.8e-12	PD=2.096e-05	PS=2.096e-05
+ NRD=0.0173	NRS=0.0173
MMM5@13	net9	net10	net8	VDD3A	pe3	L=5e-06	W=1e-05
+ AD=4.8e-12	AS=4.8e-12	PD=2.096e-05	PS=2.096e-05
+ NRD=0.0173	NRS=0.0173
MMM10@3	net8	net4	VDD3A	VDD3A	pe3	L=5e-06	W=1e-05
+ AD=4.8e-12	AS=4.8e-12	PD=2.096e-05	PS=2.096e-05
+ NRD=0.0173	NRS=0.0173
MMM10@1	net8	net4	VDD3A	VDD3A	pe3	L=5e-06	W=1e-05
+ AD=4.8e-12	AS=4.8e-12	PD=2.096e-05	PS=2.096e-05
+ NRD=0.0173	NRS=0.0173
MMM5@1	net9	net10	net8	VDD3A	pe3	L=5e-06	W=1e-05
+ AD=4.8e-12	AS=4.8e-12	PD=2.096e-05	PS=2.096e-05
+ NRD=0.0173	NRS=0.0173
MMM3@6	net7	net6	net8	VDD3A	pe3	L=5e-06	W=1e-05
+ AD=4.8e-12	AS=4.8e-12	PD=2.096e-05	PS=2.096e-05
+ NRD=0.0173	NRS=0.0173
MMM10@2	net8	net4	VDD3A	VDD3A	pe3	L=5e-06	W=1e-05
+ AD=4.8e-12	AS=4.8e-12	PD=2.096e-05	PS=2.096e-05
+ NRD=0.0173	NRS=0.0173
MMM10@4	net8	net4	VDD3A	VDD3A	pe3	L=5e-06	W=1e-05
+ AD=4.8e-12	AS=4.8e-12	PD=2.096e-05	PS=2.096e-05
+ NRD=0.0173	NRS=0.0173
MMM3@8	net7	net6	net8	VDD3A	pe3	L=5e-06	W=1e-05
+ AD=4.8e-12	AS=4.8e-12	PD=2.096e-05	PS=2.096e-05
+ NRD=0.0173	NRS=0.0173
MMM5@8	net9	net10	net8	VDD3A	pe3	L=5e-06	W=1e-05
+ AD=4.8e-12	AS=4.8e-12	PD=2.096e-05	PS=2.096e-05
+ NRD=0.0173	NRS=0.0173
MMM10@16	net8	net4	VDD3A	VDD3A	pe3	L=5e-06	W=1e-05
+ AD=4.8e-12	AS=4.8e-12	PD=2.096e-05	PS=2.096e-05
+ NRD=0.0173	NRS=0.0173
MMM10@9	net8	net4	VDD3A	VDD3A	pe3	L=5e-06	W=1e-05
+ AD=4.8e-12	AS=4.8e-12	PD=2.096e-05	PS=2.096e-05
+ NRD=0.0173	NRS=0.0173
MMM5@5	net9	net10	net8	VDD3A	pe3	L=5e-06	W=1e-05
+ AD=4.8e-12	AS=4.8e-12	PD=2.096e-05	PS=2.096e-05
+ NRD=0.0173	NRS=0.0173
MMM3@12	net7	net6	net8	VDD3A	pe3	L=5e-06	W=1e-05
+ AD=4.8e-12	AS=4.8e-12	PD=2.096e-05	PS=2.096e-05
+ NRD=0.0173	NRS=0.0173
MMM10@8	net8	net4	VDD3A	VDD3A	pe3	L=5e-06	W=1e-05
+ AD=4.8e-12	AS=4.8e-12	PD=2.096e-05	PS=2.096e-05
+ NRD=0.0173	NRS=0.0173
MMM10@7	net8	net4	VDD3A	VDD3A	pe3	L=5e-06	W=1e-05
+ AD=4.8e-12	AS=4.8e-12	PD=2.096e-05	PS=2.096e-05
+ NRD=0.0173	NRS=0.0173
MMM3@10	net7	net6	net8	VDD3A	pe3	L=5e-06	W=1e-05
+ AD=4.8e-12	AS=4.8e-12	PD=2.096e-05	PS=2.096e-05
+ NRD=0.0173	NRS=0.0173
MMM5@10	net9	net10	net8	VDD3A	pe3	L=5e-06	W=1e-05
+ AD=4.8e-12	AS=4.8e-12	PD=2.096e-05	PS=2.096e-05
+ NRD=0.0173	NRS=0.0173
MMM30@3	VDD3A	VDD3A	VDD3A	VDD3A	pe3	L=5e-06	W=1e-05
+ AD=4.8e-12	AS=4.8e-12	PD=2.096e-05	PS=2.096e-05
+ NRD=0.0173	NRS=0.0173
MMM29	VDD3A	VDD3A	VDD3A	VDD3A	pe3	L=5e-06	W=1e-05
+ AD=4.8e-12	AS=4.8e-12	PD=2.096e-05	PS=2.096e-05
+ NRD=0.0173	NRS=0.0173
MMM29@2	VDD3A	VDD3A	VDD3A	VDD3A	pe3	L=5e-06	W=1e-05
+ AD=4.8e-12	AS=4.8e-12	PD=2.096e-05	PS=2.096e-05
+ NRD=0.0173	NRS=0.0173
MMM30@1	VDD3A	VDD3A	VDD3A	VDD3A	pe3	L=5e-06	W=1e-05
+ AD=4.8e-12	AS=4.8e-12	PD=2.096e-05	PS=2.096e-05
+ NRD=0.0173	NRS=0.0173
MMM35@1	net13	PACTIVE	VDD3A	VDD3A	pe3	L=3e-07	W=3e-06
+ AD=8.1e-13	AS=1.44e-12	PD=3.54e-06	PS=6.96e-06
+ NRD=0.0576667	NRS=0.0576667
MMM35	net13	PACTIVE	VDD3A	VDD3A	pe3	L=3e-07	W=3e-06
+ AD=8.1e-13	AS=1.44e-12	PD=3.54e-06	PS=6.96e-06
+ NRD=0.0576667	NRS=0.0576667
MMM26	net16	EN	VDD3A	VDD3A	pe3	L=3e-07	W=3e-06
+ AD=8.1e-13	AS=1.44e-12	PD=3.54e-06	PS=6.96e-06
+ NRD=0.0576667	NRS=0.0576667
MMM26@1	net16	EN	VDD3A	VDD3A	pe3	L=3e-07	W=3e-06
+ AD=8.1e-13	AS=1.44e-12	PD=3.54e-06	PS=6.96e-06
+ NRD=0.0576667	NRS=0.0576667
MMM20	VB	net15	VDD3A	VDD3A	pe3	L=1e-06	W=1e-05
+ AD=4.8e-12	AS=4.8e-12	PD=2.096e-05	PS=2.096e-05
+ NRD=0.0173	NRS=0.0173
MMM20@2	VB	net15	VDD3A	VDD3A	pe3	L=1e-06	W=1e-05
+ AD=4.8e-12	AS=4.8e-12	PD=2.096e-05	PS=2.096e-05
+ NRD=0.0173	NRS=0.0173
MMM23	net15	net15	VDD3A	VDD3A	pe3	L=1e-06	W=1e-05
+ AD=4.8e-12	AS=4.8e-12	PD=2.096e-05	PS=2.096e-05
+ NRD=0.0173	NRS=0.0173
MMM20@3	VB	net15	VDD3A	VDD3A	pe3	L=1e-06	W=1e-05
+ AD=4.8e-12	AS=4.8e-12	PD=2.096e-05	PS=2.096e-05
+ NRD=0.0173	NRS=0.0173
MMM20@1	VB	net15	VDD3A	VDD3A	pe3	L=1e-06	W=1e-05
+ AD=4.8e-12	AS=4.8e-12	PD=2.096e-05	PS=2.096e-05
+ NRD=0.0173	NRS=0.0173
*
*
*       RESISTOR AND CAP/DIODE CARDS
*
RRR1	VSUBHV	GNDA	s_res 	5.000000
RRR2	VA	VDDHV	rpp1k1_3 	L=0.00041122	W=4e-06
+ $SUB=VSUBHV 
RRR4@8	FB	net1	rpp1k1_3 	L=1e-05	W=2e-06
+ $SUB=GNDA 
RRR4@7	FB	net1	rpp1k1_3 	L=1e-05	W=2e-06
+ $SUB=GNDA 
RRR4@6	FB	net1	rpp1k1_3 	L=1e-05	W=2e-06
+ $SUB=GNDA 
RRR4@5	FB	net1	rpp1k1_3 	L=1e-05	W=2e-06
+ $SUB=GNDA 
RRR4@4	FB	net1	rpp1k1_3 	L=1e-05	W=2e-06
+ $SUB=GNDA 
RRR4@3	FB	net1	rpp1k1_3 	L=1e-05	W=2e-06
+ $SUB=GNDA 
RRR4@2	FB	net1	rpp1k1_3 	L=1e-05	W=2e-06
+ $SUB=GNDA 
RRR4@1	FB	net1	rpp1k1_3 	L=1e-05	W=2e-06
+ $SUB=GNDA 
RRR4	FB	net1	rpp1k1_3 	L=1e-05	W=2e-06
+ $SUB=GNDA 
RRR7	GNDHV	OUT	rpp1k1_3 	L=0.00204354	W=2e-06
+ $SUB=VSUBHV 
RRR3	GNDHV	VA	rpp1k1_3 	L=0.00010265	W=4e-06
+ $SUB=VSUBHV 
RRR0	net11	VB	rpp1k1_3 	L=0.00016435	W=4e-06
+ $SUB=VDD3A 
*
*       CAP/DIODE CARDS
*
*
CCC1	net9	net11	cmm5t 	0 	area=8.4e-10 perimeter=0.000116  
CCC1@1	net9	net11	cmm5t 	0 	area=8.4e-10 perimeter=0.000116  
CCC1@2	net9	net11	cmm5t 	0 	area=8.4e-10 perimeter=0.000116  
CCC1@3	net9	net11	cmm5t 	0 	area=8.4e-10 perimeter=0.000116  
CCC1@4	net9	net11	cmm5t 	0 	area=8.4e-10 perimeter=0.000116  
CCC1@5	net9	net11	cmm5t 	0 	area=8.4e-10 perimeter=0.000116  
CCC1@6	net9	net11	cmm5t 	0 	area=8.4e-10 perimeter=0.000116  
DD5_unmatched	GNDA	VDD3A	p_dnw	3.57048e-11	3.588e-05 
+  perimeter=3.588e-05  model=dnw
DD6_unmatched	GNDA	VDD3A	p_dnw	1.90124e-10	7.516e-05 
+  perimeter=7.516e-05  model=dnw
DD7_unmatched	GNDA	VDD3A	p_dnw	1.58288e-09	0.00049318 
+  perimeter=0.00049318  model=dnw
DD8_unmatched	GNDA	VDD3A	p_dnw	3.09086e-09	0.00032604 
+  perimeter=0.00032604  model=dnw
DD9_unmatched	GNDA	net6	p_dnw	1.82058e-10	5.826e-05 
+  perimeter=5.826e-05  model=dnw
DD10_unmatched	GNDA	net10	p_dnw	1.82058e-10	5.826e-05 
+  perimeter=5.826e-05  model=dnw
DD11_unmatched	GNDA	net10	p_dnw	1.82058e-10	5.826e-05 
+  perimeter=5.826e-05  model=dnw
DD12_unmatched	GNDA	net6	p_dnw	1.82058e-10	5.826e-05 
+  perimeter=5.826e-05  model=dnw
DD13_unmatched	GNDA	VDD3A	p_dnw	8.36476e-09	0.0003905 
+  perimeter=0.0003905  model=dnw
DD14_unmatched	GNDA	VDD3A	p_dnw3	4.20992e-11	0.000e+00 
+  perimeter=0  model=dnw3
DD19_unmatched	GNDA	VDD3A	p_dnw3	1.56539e-10	0.000e+00 
+  perimeter=0  model=dnw3
DD20_unmatched	GNDA	net6	p_dnw3	5.86064e-10	7.406e-05 
+  perimeter=7.406e-05  model=dnw3
DD21_unmatched	GNDA	net10	p_dnw3	5.86064e-10	7.406e-05 
+  perimeter=7.406e-05  model=dnw3
DD22_unmatched	GNDA	VDD3A	p_dnw3	1.22554e-09	0.000e+00 
+  perimeter=0  model=dnw3
DD23_unmatched	GNDA	VDD3A	p_dnw3	1.15225e-09	0.00012214 
+  perimeter=0.00012214  model=dnw3
DD24_unmatched	GNDA	VDD3A	p_dnw3	1.15028e-09	0.000e+00 
+  perimeter=0  model=dnw3
DD25_unmatched	GNDA	VDD3A	p_dnw3	1.15028e-09	0.000e+00 
+  perimeter=0  model=dnw3
DD26_unmatched	GNDA	net10	p_dnw3	5.86064e-10	7.406e-05 
+  perimeter=7.406e-05  model=dnw3
DD27_unmatched	GNDA	net6	p_dnw3	5.86064e-10	7.406e-05 
+  perimeter=7.406e-05  model=dnw3
*
*
*       CAPACITOR CARDS
*
*
C8	net9	net8	3.55154e-14	$X=166.15 $Y=97.107
C9	FB	OUT	5.23579e-13	$X=449.0855 $Y=98.6095
C10	net7	net8	3.54201e-14	$X=175.659 $Y=74.1455
C11	FB	VSUBHV	4.21671e-14	$X=412.9425 $Y=83.699
C12	GNDHV	VSUBHV	4.02516e-14	$X=337.954 $Y=43.919
C13	FB	VA	1.42341e-13	$X=395.722 $Y=80.9555
C14	OUT	VSUBHV	4.56528e-14	$X=433.215 $Y=88.6475
C15	GNDHV	VA	4.83659e-14	$X=340.979 $Y=46.5825
C16	net4	VDD3A	6.54869e-14	$X=151.7375 $Y=131.6585
C17	net6	VDD3A	4.15669e-14	$X=152.4805 $Y=70.482
C18	net12	net14	2.4525e-14	$X=47.9215 $Y=47.1605
C19	VA	OUT	6.10304e-14	$X=406.2445 $Y=83.533
C20	net10	VDD3A	4.1406e-14	$X=155.837 $Y=69.6415
C21	net14	net5	2.55638e-14	$X=51.9095 $Y=46.434
C22	net8	VDD3A	6.39593e-14	$X=156.9315 $Y=106.6625
C23	net11	VDD3A	5.35116e-14	$X=260.572 $Y=126.5705
C24	net6	net10	8.83478e-14	$X=158 $Y=61.962
C25	net4	net8	3.73814e-14	$X=157.5765 $Y=116.119
C26	net6	net8	2.92089e-14	$X=158.243 $Y=89.5835
C27	net8	net10	2.91892e-14	$X=159.507 $Y=88.5135
C28	net9	net7	4.63373e-14	$X=179.423 $Y=68.247
C29	net1	net10	2.03736e-14	$X=169.618 $Y=49.8755
C30	BIAS	GNDA	2.19635e-14	$X=31.2845 $Y=70.699
C31	EN	GNDA	1.76092e-15	$X=14.1005 $Y=84.839
C32	FB	GNDA	1.92261e-14	$X=408.275 $Y=90.3835
C33	GNDHV	GNDA	1.22873e-14	$X=333.4745 $Y=41.9375
C34	IN	GNDA	5.76307e-14	$X=155.474 $Y=32.0885
C35	OUT	GNDA	5.66869e-17	$X=456.012 $Y=102.242
C36	PACTIVE	GNDA	1.77551e-15	$X=18.2845 $Y=84.839
C37	VDD3A	GNDA	1.88363e-13	$X=128.7055 $Y=117.663
C38	VDDHV	GNDA	1.58426e-14	$X=357.112 $Y=82.8365
C39	VSUBHV	GNDA	2.77194e-14	$X=395.032 $Y=76.838
C40	net12	GNDA	5.79702e-14	$X=38.4775 $Y=46.4125
C41	net14	GNDA	2.0415e-14	$X=50.843 $Y=47.393
C42	net15	GNDA	2.39643e-14	$X=64.6135 $Y=84.514
C43	net5	GNDA	3.65605e-14	$X=52.8815 $Y=45.648
C44	net4	GNDA	2.79622e-14	$X=154.394 $Y=131.7555
C45	net6	GNDA	6.25079e-14	$X=155.6845 $Y=61.9225
C46	net10	GNDA	4.28883e-14	$X=159.17 $Y=61.7805
C47	VB	GNDA	7.52971e-14	$X=179.013 $Y=66.1235
C48	net9	GNDA	7.32401e-14	$X=182.8065 $Y=75.1645
C49	net7	GNDA	4.20134e-14	$X=178.9555 $Y=67.644
C50	net8	GNDA	6.53027e-15	$X=159.1115 $Y=104.712
C51	VA	GNDA	2.81888e-14	$X=384.0615 $Y=77.4695
C52	net1	GNDA	4.51676e-14	$X=176.6595 $Y=40.8535
C53	net13	GNDA	4.62574e-15	$X=22.0655 $Y=85.9115
C54	net16	GNDA	5.14788e-15	$X=19.4315 $Y=85.435
C55	net11	GNDA	1.65951e-14	$X=284.165 $Y=125.796
*
*
.ENDS current_source_gm_10_en_r
*
