*
*
*
*                       LINUX           Fri Aug 23 11:28:40 2024
*
*
*
*  PROGRAM  advgen
*
*  Name           : advgen - Quantus - (64-bit)
*  Version        : 23.1.1-p051
*  Build Date     : Thu Feb 15 21:11:17 PST 2024
*
*  HSPICE LIBRARY
*
* GLOBAL_TEMPERATURE 27
*  OPERATING_TEMPERATURE 27
*  QRC_TECH_DIR /pkg/xfab2/XKIT/xh018/cadence/v9_0/QRC_pvs/v9_0_1/XH018_1143/QRC-Typ 
*
*!LENGTH_UNITS METERS
*
*
*

*
.SUBCKT del_test GNDD IN OUT OUT2 VDDD
*
*
*  caps2d version: 10
*
*
*       TRANSISTOR CARDS
*
*
MXI3/Xinvr_1/MMN1	B#21	IN#23	GNDD#23	GNDD	ne3
+ L=3.5e-07	W=8e-07
+ AD=3.84e-13	AS=4.148e-13	PD=2.56e-06	PS=1.98e-06
+ NRD=0.311017	NRS=0.52481
MXI3/Xinvr_1/MMN1@1	B#28	IN#15	GNDD#23	GNDD	ne3
+ L=3.5e-07	W=8e-07
+ AD=2.16e-13	AS=4.148e-13	PD=1.34e-06	PS=1.98e-06
+ NRD=0.311017	NRS=0.428036
MXI3/Xinvr_1/MMN1@2	B#28	IN#2	GNDD#26	GNDD	ne3
+ L=3.5e-07	W=8e-07
+ AD=2.16e-13	AS=9.852e-13	PD=1.34e-06	PS=4.14e-06
+ NRD=0.311017	NRS=0.659941
MXI1/Xinvr_1/MMN1	A#23	IN#26	GNDD#18	GNDD	ne3
+ L=3.5e-07	W=8e-07
+ AD=3.84e-13	AS=4.148e-13	PD=2.56e-06	PS=1.98e-06
+ NRD=0.311017	NRS=0.372666
MXI1/Xinvr_1/MMN1@1	A#30	IN#37	GNDD#18	GNDD	ne3
+ L=3.5e-07	W=8e-07
+ AD=2.16e-13	AS=4.148e-13	PD=1.34e-06	PS=1.98e-06
+ NRD=0.311017	NRS=0.275892
MXI1/Xinvr_1/MMN1@2	A#30	IN#48	GNDD#15	GNDD	ne3
+ L=3.5e-07	W=8e-07
+ AD=2.16e-13	AS=9.852e-13	PD=1.34e-06	PS=4.14e-06
+ NRD=0.311017	NRS=0.545139
MXI2/Xinvr_1/MMN1	OUT2#2	B#5	GNDD#34	GNDD	ne3
+ L=3.5e-07	W=4.8e-07
+ AD=1.296e-13	AS=4.408e-13	PD=1.02e-06	PS=3.52e-06
+ NRD=0.340364	NRS=2.38593
MXI2/Xinvr_1/MMN1@1	OUT2#2	B#2	GNDD#38	GNDD	ne3
+ L=3.5e-07	W=4.8e-07
+ AD=1.296e-13	AS=4.408e-13	PD=1.02e-06	PS=3.52e-06
+ NRD=0.340364	NRS=2.38593
MXI0/Xinvr_1/MMN1	OUT#2	A#4	GNDD#12	GNDD	ne3
+ L=3.5e-07	W=4.8e-07
+ AD=1.296e-13	AS=4.408e-13	PD=1.02e-06	PS=3.52e-06
+ NRD=0.340364	NRS=2.38593
MXI0/Xinvr_1/MMN1@1	OUT#2	A#5	GNDD#2	GNDD	ne3	L=3.5e-07
+ W=4.8e-07
+ AD=1.296e-13	AS=4.408e-13	PD=1.02e-06	PS=3.52e-06
+ NRD=0.340364	NRS=2.38593
MXI3/Xinvr_1/MMP1	B#23	IN#20	VDDD#42	VDDD	pe3
+ L=3.0057e-07	W=1.47006e-06
+ AD=2.54913e-13	AS=5.79287e-13	PD=1.86506e-06	PS=3.69506e-06
+ NRD=0.190044	NRS=0.235784
MXI3/Xinvr_1/MMP1@1	B#23	IN#17	VDDD#39	VDDD	pe3
+ L=3.0057e-07	W=1.47006e-06
+ AD=2.54913e-13	AS=2.83187e-13	PD=1.86506e-06	PS=1.86506e-06
+ NRD=0.195656	NRS=0.18553
MXI3/Xinvr_1/MMP1@2	B#16	IN#12	VDDD#39	VDDD	pe3
+ L=3.0057e-07	W=1.47006e-06
+ AD=2.54913e-13	AS=2.83187e-13	PD=1.86506e-06	PS=1.86506e-06
+ NRD=0.285325	NRS=0.178044
MXI3/Xinvr_1/MMP1@3	B#16	IN#9	VDDD#34	VDDD	pe3
+ L=3.0057e-07	W=1.47006e-06
+ AD=2.54913e-13	AS=1.48669e-12	PD=1.86506e-06	PS=5.27506e-06
+ NRD=0.303372	NRS=0.226289
MXI1/Xinvr_1/MMP1	A#25	IN#30	VDDD#16	VDDD	pe3
+ L=3.0057e-07	W=1.47006e-06
+ AD=2.54913e-13	AS=5.79287e-13	PD=1.86506e-06	PS=3.69506e-06
+ NRD=0.195656	NRS=0.253283
MXI1/Xinvr_1/MMP1@1	A#25	IN#33	VDDD#37	VDDD	pe3
+ L=3.0057e-07	W=1.47006e-06
+ AD=2.54913e-13	AS=2.83187e-13	PD=1.86506e-06	PS=1.86506e-06
+ NRD=0.190044	NRS=0.178044
MXI1/Xinvr_1/MMP1@2	A#18	IN#43	VDDD#37	VDDD	pe3
+ L=3.0057e-07	W=1.47006e-06
+ AD=2.54913e-13	AS=2.83187e-13	PD=1.86506e-06	PS=1.86506e-06
+ NRD=0.303372	NRS=0.18553
MXI1/Xinvr_1/MMP1@3	A#18	IN#50	VDDD#31	VDDD	pe3
+ L=3.0057e-07	W=1.47006e-06
+ AD=2.54913e-13	AS=1.48669e-12	PD=1.86506e-06	PS=5.27506e-06
+ NRD=0.285325	NRS=0.217483
MXI2/Xinvr_1/MMP1	OUT2#7	B#10	VDDD#20	VDDD	pe3
+ L=3.0047e-07	W=1.45971e-06
+ AD=2.751e-13	AS=8.151e-13	PD=1.87971e-06	PS=4.50971e-06
+ NRD=0.195223	NRS=0.299297
MXI2/Xinvr_1/MMP1@1	OUT2#7	B#6	VDDD#2	VDDD	pe3	L=3.0047e-07
+ W=1.45971e-06
+ AD=2.751e-13	AS=8.01e-13	PD=1.87971e-06	PS=4.48971e-06
+ NRD=0.19951	NRS=0.297477
MXI0/Xinvr_1/MMP1	OUT#6	A#11	VDDD#28	VDDD	pe3
+ L=3.0047e-07	W=1.45971e-06
+ AD=2.751e-13	AS=8.151e-13	PD=1.87971e-06	PS=4.50971e-06
+ NRD=0.19951	NRS=0.309742
MXI0/Xinvr_1/MMP1@1	OUT#6	A#8	VDDD#24	VDDD	pe3
+ L=3.0047e-07	W=1.45971e-06
+ AD=2.751e-13	AS=8.01e-13	PD=1.87971e-06	PS=4.48971e-06
+ NRD=0.195223	NRS=0.288229
*
*
*       RESISTOR AND CAP/DIODE CARDS
*
Rc2	B#52	B#54	923.694214	$MET4	$L=0.00299576	$W=2.4e-07
+ $X=1498.6375 $Y=64.845
Rd2	B#44	B#46	0.251292	$MET3	$L=8.15e-07	$W=2.4e-07
+ $X=0.3475 $Y=64.845
Rd5	B#48	B#50	0.365375	$MET3	$L=1.185e-06	$W=2.4e-07
+ $X=2997.1125 $Y=64.845
Re2	B#36	B#38	0.268250	$MET2	$L=8.7e-07	$W=2.4e-07
+ $X=-0.495 $Y=64.845
Re5	B#40	B#42	0.336083	$MET2	$L=1.09e-06	$W=2.4e-07
+ $X=2998.25 $Y=64.845
Rf1	IN#52	IN#53	0.143249	$MET1	$L=8.3975e-07	$W=3.6e-07
+ $X=-3.9045 $Y=64.83
Rf2	IN#53	IN#54	0.395967	$MET1	$L=1.09e-06	$W=2.1e-07
+ $X=-4.7845 $Y=64.83
Rf3	IN#54	IN	13.743098	$MET1	$L=3.75752e-05	$W=5.6e-07
+ $X=-5.3245 $Y=64.83
Rf5	IN	IN#56	0.314451	$MET1	$L=1.64025e-06	$W=3.6e-07
+ $X=-4.305 $Y=27.255
Rf7	B#15	B#18	0.206988	$MET1	$L=7.5475e-07	$W=2.7e-07
+ $X=-2.322 $Y=64.2
Rf10	B#18	B#22	0.371102	$MET1	$L=1.33025e-06	$W=2.7e-07
+ $X=-3.3645 $Y=65.425
Rf11	B#18	B#24	0.172898	$MET1	$L=6.3525e-07	$W=2.7e-07
+ $X=-3.017 $Y=64.2
Rf13	B#18	B#26	0.463879	$MET1	$L=1.58e-06	$W=2.1e-07
+ $X=-1.9095 $Y=64.845
Rf15	B#18	B#29	0.177043	$MET1	$L=6.4975e-07	$W=2.7e-07
+ $X=-2.3745 $Y=65.425
Rf18	B#32	B#33	0.143249	$MET1	$L=8.3975e-07	$W=3.6e-07
+ $X=3000.015 $Y=64.83
Rf19	B#33	B#34	0.254953	$MET1	$L=6.955e-07	$W=2.1e-07
+ $X=2999.3325 $Y=64.845
Rf22	A#17	A#20	0.206988	$MET1	$L=7.5475e-07	$W=2.7e-07
+ $X=-2.322 $Y=27.885
Rf25	A#20	A#24	0.371102	$MET1	$L=1.33025e-06	$W=2.7e-07
+ $X=-3.3645 $Y=26.66
Rf26	A#20	A#26	0.172898	$MET1	$L=6.3525e-07	$W=2.7e-07
+ $X=-3.017 $Y=27.885
Rf28	A#20	A#28	1100.757202	$MET1	$L=0.00300238	$W=2.1e-07
+ $X=1498.49 $Y=27.285
Rf29	A#28	A#29	0.149877	$MET1	$L=8.3975e-07	$W=3.6e-07
+ $X=3000.015 $Y=27.255
Rf30	A#20	A#31	0.177043	$MET1	$L=6.4975e-07	$W=2.7e-07
+ $X=-2.3745 $Y=26.66
Rf35	OUT#1	OUT#5	0.355272	$MET1	$L=1.235e-06	$W=2.6e-07
+ $X=3000.94 $Y=26.66
Rf37	OUT#5	OUT	0.459966	$MET1	$L=1.7625e-06	$W=2.9e-07
+ $X=3001.8215 $Y=27.895
Rf42	OUT2#1	OUT2#5	0.170712	$MET1	$L=5.95e-07	$W=2.6e-07
+ $X=3000.94 $Y=65.425
Rf43	OUT2#5	OUT2#6	0.183827	$MET1	$L=6.4e-07	$W=2.6e-07
+ $X=3000.94 $Y=64.83
Rf45	OUT2#5	OUT2	0.641632	$MET1	$L=1.785e-06	$W=2.1e-07
+ $X=3001.8325 $Y=64.83
Rf48	VDDD#1	VDDD#4	0.155402	$MET1	$L=8.0975e-07	$W=2.7e-07
+ $X=3001.4425 $Y=63.12
Rf51	VDDD#4	VDDD#7	0.413523	$MET1	$L=1.97348e-05	$W=3.9e-06
+ $X=3001.0835 $Y=61.9095
Rf52	VDDD#7	VDDD#8	0.286545	$MET1	$L=1.24e-05	$W=1.735e-06
+ $X=3001.7425 $Y=35.975
Rf53	VDDD#8	VDDD#9	0.107800	$MET1	$L=1.12e-06	$W=7.8e-07
+ $X=3000.3425 $Y=29.775
Rf54	VDDD#9	VDDD#7	1.968660	$MET1	$L=1.24e-05	$W=4.65e-07
+ $X=2999.7825 $Y=29.775
Rf56	VDDD#7	VDDD	11.551697	$MET1	$L=0.00299744	$W=1.998e-05
+ $X=1500.82 $Y=44.175
Rf60	VDDD	VDDD#15	0.817451	$MET1	$L=1.66675e-05
+ $W=1.55e-06	$X=-3.595 $Y=37.7085
Rf61	VDDD#15	VDDD#17	0.113106	$MET1	$L=5.9025e-07
+ $W=3.2e-07	$X=-4.0295 $Y=29.375
Rf64	VDDD#4	VDDD#21	0.114811	$MET1	$L=4.1025e-07
+ $W=2.75e-07	$X=2999.8885 $Y=62.7095
Rf67	VDDD#8	VDDD#25	0.116937	$MET1	$L=4.1025e-07
+ $W=2.7e-07	$X=3001.4425 $Y=29.375
Rf70	VDDD#9	VDDD#29	0.114840	$MET1	$L=4.1025e-07
+ $W=2.75e-07	$X=2999.841 $Y=29.375
Rf73	VDDD	VDDD#32	0.766840	$MET1	$L=1.71175e-05
+ $W=2.7e-07	$X=-1.465 $Y=37.4835
Rf75	VDDD	VDDD#35	0.806480	$MET1	$L=1.71175e-05
+ $W=2.7e-07	$X=-1.465 $Y=54.601
Rf77	VDDD	VDDD#38	3.887792	$MET1	$L=1.72575e-05
+ $W=3.2e-07	$X=-2.64 $Y=37.4735
Rf78	VDDD	VDDD#40	3.887792	$MET1	$L=1.72575e-05
+ $W=3.2e-07	$X=-2.64 $Y=54.611
Rf79	VDDD	VDDD#41	0.817448	$MET1	$L=1.66672e-05
+ $W=1.55e-06	$X=-3.595 $Y=54.376
Rf80	VDDD#41	VDDD#43	0.113106	$MET1	$L=5.9025e-07
+ $W=3.2e-07	$X=-4.0295 $Y=62.7095
Rf82	GNDD#1	GNDD#4	0.367605	$MET1	$L=1.24522e-05	$W=2.7e-07
+ $X=3001.5825 $Y=25.835
Rf85	GNDD#4	GNDD	11.543757	$MET1	$L=0.00299538	$W=1.998e-05
+ $X=1501.85 $Y=11.49
Rf91	GNDD#4	GNDD#13	6.578288	$MET1	$L=2.4765e-05
+ $W=2.7e-07	$X=2999.865 $Y=13.4525
Rf93	GNDD	GNDD#16	3.386107	$MET1	$L=1.27225e-05
+ $W=2.7e-07	$X=-0.785 $Y=19.7435
Rf95	GNDD	GNDD#19	2.875044	$MET1	$L=1.28425e-05
+ $W=3.2e-07	$X=-2.98 $Y=19.7185
Rf96	GNDD	GNDD#20	0.283297	$MET1	$L=7.353e-05
+ $W=1.998e-05	$X=-28.2345 $Y=11.49
Rf99	GNDD#20	GNDD#24	3.411213	$MET1	$L=1.521e-05
+ $W=3.2e-07	$X=-2.98 $Y=73.55
Rf101	GNDD#20	GNDD#27	4.014719	$MET1	$L=1.509e-05
+ $W=2.7e-07	$X=-0.785 $Y=73.525
Rf104	GNDD#20	GNDD#30	11.572267	$MET1	$L=0.00300278
+ $W=1.998e-05	$X=1500.93 $Y=84.85
Rf105	GNDD#30	GNDD#31	0.166667	$MET1	$L=1e-05
+ $W=4.6e-06	$X=3002.32 $Y=79.85
Rf106	GNDD#31	GNDD#32	0.188688	$MET1	$L=8.06e-06
+ $W=3.43e-06	$X=3001.3725 $Y=74.85
Rg1	IN#1	IN#2	12.236842	$POLY1	$L=6.2e-07	$W=3.8e-07
+ $X=-1.605 $Y=65.95
Rg2	IN#2	IN#3	16.455956	$POLY1	$L=8.1e-07	$W=3.8e-07
+ $X=-1.565 $Y=65.64
Rg3	IN#3	IN#4	15.552084	$POLY1	$L=9.1725e-07	$W=4.5e-07
+ $X=-1.9835 $Y=64.83
Rg4	IN#4	IN#5	2.678571	$POLY1	$L=1.5e-07	$W=4.5e-07
+ $X=-2.517 $Y=64.83
Rg5	IN#5	IN#6	6.767857	$POLY1	$L=3.95e-07	$W=4.5e-07
+ $X=-2.7895 $Y=64.83
Rg6	IN#6	IN#7	9.995536	$POLY1	$L=5.8275e-07	$W=4.5e-07
+ $X=-3.2785 $Y=64.83
Rg7	IN#7	IN#8	5.809524	$POLY1	$L=3.35e-07	$W=4.5e-07
+ $X=-3.7375 $Y=64.83
Rg8	IN#3	IN#9	25.803251	$POLY1	$L=1.155e-06	$W=3.3e-07
+ $X=-1.561 $Y=64.83
Rg9	IN#9	IN#10	21.451578	$POLY1	$L=9.25e-07	$W=3.3e-07
+ $X=-1.67 $Y=63.2125
Rg10	IN#4	IN#11	30.280939	$POLY1	$L=1.0575e-06	$W=3.3e-07
+ $X=-2.442 $Y=64.83
Rg11	IN#11	IN#12	5.846647	$POLY1	$L=1.79677e-07	$W=3.05e-07
+ $X=-2.367 $Y=63.7725
Rg12	IN#12	IN#13	5.873919	$POLY1	$L=1.80384e-07	$W=3.05e-07
+ $X=-2.217 $Y=63.7725
Rg13	IN#13	IN#14	28.884123	$POLY1	$L=1.02275e-06	$W=3.3e-07
+ $X=-2.181 $Y=63.7555
Rg14	IN#5	IN#15	17.566923	$POLY1	$L=8.0975e-07	$W=3.8e-07
+ $X=-2.5435 $Y=64.83
Rg15	IN#15	IN#16	12.236842	$POLY1	$L=6.2e-07	$W=3.8e-07
+ $X=-2.495 $Y=65.64
Rg16	IN#6	IN#17	25.474257	$POLY1	$L=1.15525e-06	$W=3.3e-07
+ $X=-2.987 $Y=64.83
Rg17	IN#17	IN#18	1.064414	$POLY1	$L=3.975e-08	$W=4.75e-07
+ $X=-2.9875 $Y=63.655
Rg18	IN#18	IN#19	20.117851	$POLY1	$L=8.8525e-07	$W=3.3e-07
+ $X=-3.0235 $Y=63.635
Rg19	IN#7	IN#20	24.901611	$POLY1	$L=1.155e-06	$W=3.3e-07
+ $X=-3.626 $Y=64.83
Rg20	IN#20	IN#21	1.064414	$POLY1	$L=3.975e-08	$W=4.75e-07
+ $X=-3.6825 $Y=63.655
Rg21	IN#21	IN#22	20.117851	$POLY1	$L=8.8525e-07	$W=3.3e-07
+ $X=-3.646 $Y=63.635
Rg22	IN#7	IN#23	16.342106	$POLY1	$L=8.1e-07	$W=3.8e-07
+ $X=-3.5775 $Y=64.83
Rg23	IN#23	IN#24	12.236842	$POLY1	$L=6.2e-07	$W=3.8e-07
+ $X=-3.585 $Y=65.64
Rg24	IN#25	IN#26	12.236842	$POLY1	$L=6.2e-07	$W=3.8e-07
+ $X=-3.585 $Y=26.135
Rg25	IN#26	IN#27	16.342106	$POLY1	$L=8.1e-07	$W=3.8e-07
+ $X=-3.5775 $Y=26.445
Rg26	IN#27	IN#28	5.809524	$POLY1	$L=3.35e-07	$W=4.5e-07
+ $X=-3.7375 $Y=27.255
Rg27	IN#27	IN#29	20.758783	$POLY1	$L=9.2025e-07	$W=3.3e-07
+ $X=-3.626 $Y=27.255
Rg28	IN#29	IN#30	4.143361	$POLY1	$L=2.3475e-07	$W=4.75e-07
+ $X=-3.682 $Y=28.175
Rg29	IN#27	IN#31	9.995536	$POLY1	$L=5.8275e-07	$W=4.5e-07
+ $X=-3.2785 $Y=27.255
Rg30	IN#31	IN#32	21.322500	$POLY1	$L=9.2e-07	$W=3.3e-07
+ $X=-2.987 $Y=27.255
Rg31	IN#32	IN#33	4.143361	$POLY1	$L=2.3475e-07	$W=4.75e-07
+ $X=-2.987 $Y=28.175
Rg32	IN#30	IN#34	1.064414	$POLY1	$L=3.975e-08	$W=4.75e-07
+ $X=-3.6825 $Y=28.4295
Rg33	IN#34	IN#35	20.106487	$POLY1	$L=8.8525e-07	$W=3.3e-07
+ $X=-3.646 $Y=28.4495
Rg34	IN#31	IN#36	6.767857	$POLY1	$L=3.95e-07	$W=4.5e-07
+ $X=-2.7895 $Y=27.255
Rg35	IN#36	IN#37	17.575851	$POLY1	$L=8.1025e-07	$W=3.8e-07
+ $X=-2.5435 $Y=27.255
Rg36	IN#37	IN#38	12.236842	$POLY1	$L=6.2e-07	$W=3.8e-07
+ $X=-2.495 $Y=26.445
Rg37	IN#33	IN#39	1.064414	$POLY1	$L=3.975e-08	$W=4.75e-07
+ $X=-2.9875 $Y=28.4295
Rg38	IN#39	IN#40	20.106487	$POLY1	$L=8.8525e-07	$W=3.3e-07
+ $X=-3.0235 $Y=28.4495
Rg39	IN#36	IN#41	2.678571	$POLY1	$L=1.5e-07	$W=4.5e-07
+ $X=-2.517 $Y=27.255
Rg40	IN#41	IN#42	30.297873	$POLY1	$L=1.0575e-06	$W=3.3e-07
+ $X=-2.442 $Y=27.255
Rg41	IN#42	IN#43	5.846647	$POLY1	$L=1.79677e-07	$W=3.05e-07
+ $X=-2.367 $Y=28.3125
Rg42	IN#43	IN#44	5.873919	$POLY1	$L=1.80384e-07	$W=3.05e-07
+ $X=-2.217 $Y=28.3125
Rg43	IN#44	IN#45	28.846897	$POLY1	$L=1.02225e-06	$W=3.3e-07
+ $X=-2.181 $Y=28.3295
Rg44	IN#41	IN#46	15.552083	$POLY1	$L=9.1725e-07	$W=4.5e-07
+ $X=-1.9835 $Y=27.255
Rg45	IN#46	IN#47	4.479637	$POLY1	$L=2.1025e-07	$W=3.8e-07
+ $X=-1.525 $Y=27.1495
Rg46	IN#47	IN#48	12.422985	$POLY1	$L=5.9975e-07	$W=3.8e-07
+ $X=-1.6045 $Y=27.0445
Rg47	IN#48	IN#49	12.236842	$POLY1	$L=6.2e-07	$W=3.8e-07
+ $X=-1.605 $Y=26.445
Rg48	IN#46	IN#50	25.803251	$POLY1	$L=1.155e-06	$W=3.3e-07
+ $X=-1.561 $Y=27.255
Rg49	IN#50	IN#51	21.440214	$POLY1	$L=9.25e-07	$W=3.3e-07
+ $X=-1.67 $Y=28.872
Rg50	B	B#2	9.078948	$POLY1	$L=4.6e-07	$W=3.8e-07
+ $X=3001.105 $Y=65.71
Rg51	B#2	B#3	13.174571	$POLY1	$L=6.4975e-07	$W=3.8e-07
+ $X=3001.0675 $Y=65.48
Rg52	B#3	B#4	11.694941	$POLY1	$L=6.8025e-07	$W=4.5e-07
+ $X=3000.69 $Y=64.83
Rg53	B#4	B#5	13.387445	$POLY1	$L=6.5e-07	$W=3.8e-07
+ $X=3000.2825 $Y=64.83
Rg54	B#3	B#6	25.121429	$POLY1	$L=1.15525e-06	$W=3.3e-07
+ $X=3001.03 $Y=64.83
Rg55	B#6	B#7	0.572135	$POLY1	$L=1.475e-08	$W=4.5e-07
+ $X=3001.03 $Y=63.6675
Rg56	B#7	B#8	20.686283	$POLY1	$L=9.1025e-07	$W=3.3e-07
+ $X=3001 $Y=63.66
Rg57	B#3	B#9	4.269345	$POLY1	$L=2.4975e-07	$W=4.5e-07
+ $X=3001.155 $Y=64.83
Rg58	B#4	B#10	24.790878	$POLY1	$L=1.155e-06	$W=3.3e-07
+ $X=3000.33 $Y=64.83
Rg59	B#10	B#11	0.572135	$POLY1	$L=1.475e-08	$W=4.5e-07
+ $X=3000.31 $Y=63.6675
Rg60	B#11	B#12	20.686283	$POLY1	$L=9.1025e-07	$W=3.3e-07
+ $X=3000.34 $Y=63.66
Rg61	B#4	B#13	5.321429	$POLY1	$L=3.1e-07	$W=4.5e-07
+ $X=3000.195 $Y=64.83
Rg62	B#5	B#14	9.078948	$POLY1	$L=4.6e-07	$W=3.8e-07
+ $X=3000.215 $Y=65.48
Rg63	A	A#2	4.269345	$POLY1	$L=2.4975e-07	$W=4.5e-07
+ $X=3001.155 $Y=27.255
Rg64	A#2	A#3	11.694941	$POLY1	$L=6.8025e-07	$W=4.5e-07
+ $X=3000.69 $Y=27.255
Rg65	A#3	A#4	13.387445	$POLY1	$L=6.5e-07	$W=3.8e-07
+ $X=3000.2825 $Y=27.255
Rg66	A#2	A#5	13.183499	$POLY1	$L=6.5025e-07	$W=3.8e-07
+ $X=3001.0675 $Y=27.255
Rg67	A#5	A#6	9.078948	$POLY1	$L=4.6e-07	$W=3.8e-07
+ $X=3001.105 $Y=26.605
Rg68	A#2	A#7	20.874294	$POLY1	$L=9.2e-07	$W=3.3e-07
+ $X=3001.03 $Y=27.255
Rg69	A#7	A#8	4.238802	$POLY1	$L=2.3475e-07	$W=4.5e-07
+ $X=3001.03 $Y=28.175
Rg70	A#3	A#9	5.321429	$POLY1	$L=3.1e-07	$W=4.5e-07
+ $X=3000.195 $Y=27.255
Rg71	A#3	A#10	20.552671	$POLY1	$L=9.2025e-07	$W=3.3e-07
+ $X=3000.33 $Y=27.255
Rg72	A#10	A#11	4.238802	$POLY1	$L=2.3475e-07	$W=4.5e-07
+ $X=3000.31 $Y=28.175
Rg73	A#4	A#12	9.078948	$POLY1	$L=4.6e-07	$W=3.8e-07
+ $X=3000.215 $Y=26.605
Rg74	A#8	A#13	0.572135	$POLY1	$L=1.475e-08	$W=4.5e-07
+ $X=3001.03 $Y=28.417
Rg75	A#13	A#14	20.674919	$POLY1	$L=9.1025e-07	$W=3.3e-07
+ $X=3001 $Y=28.4245
Rg76	A#11	A#15	0.572135	$POLY1	$L=1.475e-08	$W=4.5e-07
+ $X=3000.31 $Y=28.417
Rg77	A#15	A#16	20.674919	$POLY1	$L=9.1025e-07	$W=3.3e-07
+ $X=3000.34 $Y=28.4245
Rcb1	B#21	B#22	7.500000	$cont	$L=2.2e-07	$W=2.2e-07
+ $A=4.84e-14	$N=1.0000	$X=-4.03 $Y=65.45
Rcb2	B#28	B#29	7.500000	$cont	$L=2.2e-07	$W=2.2e-07
+ $A=4.84e-14	$N=1.0000	$X=-2.05 $Y=65.45
Rcb3	A#23	A#24	7.500000	$cont	$L=2.2e-07	$W=2.2e-07
+ $A=4.84e-14	$N=1.0000	$X=-4.03 $Y=26.635
Rcb4	A#30	A#31	7.500000	$cont	$L=2.2e-07	$W=2.2e-07
+ $A=4.84e-14	$N=1.0000	$X=-2.05 $Y=26.635
Rcb5	OUT#2	OUT#1	7.500000	$cont	$L=2.2e-07	$W=2.2e-07
+ $A=4.84e-14	$N=1.0000	$X=3000.66 $Y=26.635
Rcb6	OUT2#2	OUT2#1	7.500000	$cont	$L=2.2e-07	$W=2.2e-07
+ $A=4.84e-14	$N=1.0000	$X=3000.66 $Y=65.45
Rcb7	GNDD#2	GNDD#1	7.500000	$cont	$L=2.2e-07	$W=2.2e-07
+ $A=4.84e-14	$N=1.0000	$X=3001.43 $Y=25.835
Rcb8	GNDD#12	GNDD#13	7.500000	$cont	$L=2.2e-07
+ $W=2.2e-07	$A=4.84e-14	$N=1.0000	$X=2999.89 $Y=25.835
Rcb9	GNDD#15	GNDD#16	7.500000	$cont	$L=2.2e-07
+ $W=2.2e-07	$A=4.84e-14	$N=1.0000	$X=-0.81 $Y=26.105
Rcb10	GNDD#18	GNDD#19	7.500000	$cont	$L=2.2e-07
+ $W=2.2e-07	$A=4.84e-14	$N=1.0000	$X=-2.98 $Y=26.055
Rcb11	GNDD#23	GNDD#24	7.500000	$cont	$L=2.2e-07
+ $W=2.2e-07	$A=4.84e-14	$N=1.0000	$X=-2.98 $Y=66.03
Rcb12	GNDD#26	GNDD#27	7.500000	$cont	$L=2.2e-07
+ $W=2.2e-07	$A=4.84e-14	$N=1.0000	$X=-0.81 $Y=65.98
Rcb13	GNDD#34	GNDD#32	7.500000	$cont	$L=2.2e-07
+ $W=2.2e-07	$A=4.84e-14	$N=1.0000	$X=2999.89 $Y=66.25
Rcb14	GNDD#38	GNDD#32	7.500000	$cont	$L=2.2e-07
+ $W=2.2e-07	$A=4.84e-14	$N=1.0000	$X=3001.43 $Y=66.25
Rcb_1_1	IN#7	IN#52	7.500000	$cont	$L=2.2e-07	$W=2.2e-07
+ $A=4.84e-14	$N=1.0000	$X=-3.57 $Y=64.83
Rcb_1_2	IN#27	IN#56	7.500000	$cont	$L=2.2e-07	$W=2.2e-07
+ $A=4.84e-14	$N=1.0000	$X=-3.57 $Y=27.255
Rcb_1_3	B#4	B#32	7.500000	$cont	$L=2.2e-07	$W=2.2e-07
+ $A=4.84e-14	$N=1.0000	$X=3000.35 $Y=64.83
Rcb_1_4	A#3	A#29	7.500000	$cont	$L=2.2e-07	$W=2.2e-07
+ $A=4.84e-14	$N=1.0000	$X=3000.35 $Y=27.255
Rcb_2_1	B#16	B#15	7.500000	$cont	$L=2.2e-07	$W=2.2e-07
+ $A=4.84e-14	$N=1.0000	$X=-1.945 $Y=64.17
Rcb_2_2	B#23	B#24	7.500000	$cont	$L=2.2e-07	$W=2.2e-07
+ $A=4.84e-14	$N=1.0000	$X=-3.335 $Y=64.17
Rcb_2_3	A#18	A#17	7.500000	$cont	$L=2.2e-07	$W=2.2e-07
+ $A=4.84e-14	$N=1.0000	$X=-1.945 $Y=27.915
Rcb_2_4	A#25	A#26	7.500000	$cont	$L=2.2e-07	$W=2.2e-07
+ $A=4.84e-14	$N=1.0000	$X=-3.335 $Y=27.915
Rcb_2_5	OUT#6	OUT#5	7.500000	$cont	$L=2.2e-07	$W=2.2e-07
+ $A=4.84e-14	$N=1.0000	$X=3000.67 $Y=27.935
Rcb_2_6	OUT2#7	OUT2#6	7.500000	$cont	$L=2.2e-07	$W=2.2e-07
+ $A=4.84e-14	$N=1.0000	$X=3000.67 $Y=64.15
Rcb_2_7	VDDD#2	VDDD#1	7.500000	$cont	$L=2.2e-07	$W=2.2e-07
+ $A=4.84e-14	$N=1.0000	$X=3001.43 $Y=63.12
Rcb_2_8	VDDD#16	VDDD#17	7.500000	$cont	$L=2.2e-07
+ $W=2.2e-07	$A=4.84e-14	$N=1.0000	$X=-4.03 $Y=28.905
Rcb_2_9	VDDD#20	VDDD#21	7.500000	$cont	$L=2.2e-07
+ $W=2.2e-07	$A=4.84e-14	$N=1.0000	$X=2999.9 $Y=63.12
Rcb_2_10	VDDD#24	VDDD#25	7.500000	$cont
+ $L=2.2e-07	$W=2.2e-07	$A=4.84e-14	$N=1.0000
+ $X=3001.43 $Y=28.965
Rcb_2_11	VDDD#28	VDDD#29	7.500000	$cont
+ $L=2.2e-07	$W=2.2e-07	$A=4.84e-14	$N=1.0000
+ $X=2999.9 $Y=28.965
Rcb_2_12	VDDD#31	VDDD#32	7.500000	$cont
+ $L=2.2e-07	$W=2.2e-07	$A=4.84e-14	$N=1.0000
+ $X=-1.25 $Y=28.925
Rcb_2_13	VDDD#34	VDDD#35	7.500000	$cont
+ $L=2.2e-07	$W=2.2e-07	$A=4.84e-14	$N=1.0000
+ $X=-1.25 $Y=63.16
Rcb_2_14	VDDD#37	VDDD#38	7.500000	$cont
+ $L=2.2e-07	$W=2.2e-07	$A=4.84e-14	$N=1.0000
+ $X=-2.64 $Y=28.905
Rcb_2_15	VDDD#39	VDDD#40	7.500000	$cont
+ $L=2.2e-07	$W=2.2e-07	$A=4.84e-14	$N=1.0000
+ $X=-2.64 $Y=63.18
Rcb_2_16	VDDD#42	VDDD#43	7.500000	$cont
+ $L=2.2e-07	$W=2.2e-07	$A=4.84e-14	$N=1.0000
+ $X=-4.03 $Y=63.18
Rbb1	B#26	B#38	4.500000	$via1	$L=2.6e-07	$W=2.6e-07
+ $A=6.76e-14	$N=1.0000	$X=-0.93 $Y=64.845
Rbb2	B#34	B#40	4.500000	$via1	$L=2.6e-07	$W=2.6e-07
+ $A=6.76e-14	$N=1.0000	$X=2998.795 $Y=64.845
Ru1	B#36	B#46	4.500000	$via2CON	$L=2.6e-07
+ $W=2.6e-07	$A=6.76e-14	$N=1.0000	$X=-0.06 $Y=64.845
Ru2	B#42	B#48	4.500000	$via2CON	$L=2.6e-07
+ $W=2.6e-07	$A=6.76e-14	$N=1.0000	$X=2997.705 $Y=64.845
Rn1	B#50	B#52	4.500000	$via3CON	$L=2.6e-07
+ $W=2.6e-07	$A=6.76e-14	$N=1.0000	$X=2996.52 $Y=64.845
Rn2	B#44	B#54	4.500000	$via3CON	$L=2.6e-07
+ $W=2.6e-07	$A=6.76e-14	$N=1.0000	$X=0.755 $Y=64.845
*
*       CAP/DIODE CARDS
*
*
DX9/D7_unmatched	GNDD	VDDD	p_dnw3	1.50092e-11	1.584e-05 
+  perimeter=1.584e-05  model=dnw3
DX8/D7_unmatched	GNDD	VDDD	p_dnw3	1.50092e-11	1.584e-05 
+  perimeter=1.584e-05  model=dnw3
DX7/D4_unmatched	GNDD	VDDD	p_dnw3	9.734e-12	1.248e-05 
+  perimeter=1.248e-05  model=dnw3
DX6/D4_unmatched	GNDD	VDDD	p_dnw3	9.734e-12	1.248e-05 
+  perimeter=1.248e-05  model=dnw3
*
*
*       CAPACITOR CARDS
*
*
C1	GNDD#20	GNDD#26	1.01989e-17	$X=-0.9415 $Y=65.86
C2	GNDD#1	GNDD#2	2.77338e-17	$X=3001.4635 $Y=25.9155
C3	GNDD#24	GNDD#23	2.62623e-17	$X=-2.9895 $Y=66.044
C4	GNDD#19	GNDD#18	2.60606e-17	$X=-2.9895 $Y=26.0395
C5	GNDD#27	GNDD#26	2.5485e-17	$X=-0.8055 $Y=66.0075
C6	GNDD#13	GNDD#12	1.98727e-17	$X=2999.8555 $Y=25.915
C7	GNDD	GNDD#15	1.23204e-17	$X=-0.964 $Y=26.2245
C8	GNDD#32	GNDD#38	2.13058e-17	$X=3001.488 $Y=65.931
C9	GNDD#32	GNDD#34	1.89721e-17	$X=2999.831 $Y=65.931
C10	GNDD#16	GNDD#15	2.45552e-17	$X=-0.8055 $Y=26.076
C11	GNDD#20	GNDD	9.53604e-13	$X=765.096 $Y=84.0635
C12	GNDD#32	GNDD	9.97098e-16	$X=3000.6375 $Y=68.704
C13	GNDD#30	GNDD	9.16969e-13	$X=2229.7225 $Y=84.0935
C14	GNDD#4	GNDD	9.15246e-13	$X=2230.777 $Y=12.433
C15	GNDD#1	GNDD	1.70878e-17	$X=3001.454 $Y=25.855
C16	GNDD#13	GNDD	1.71212e-17	$X=2999.864 $Y=25.8545
C17	GNDD#16	GNDD	2.28096e-17	$X=-0.785 $Y=26.057
C18	GNDD#19	GNDD	8.55954e-18	$X=-2.98 $Y=26.007
C19	GNDD#27	GNDD	2.28096e-17	$X=-0.785 $Y=66.027
C20	GNDD#20	GNDD#23	3.92953e-18	$X=-3.0205 $Y=65.86
C21	GNDD	GNDD#18	3.92953e-18	$X=-3.0395 $Y=26.2245
C22	GNDD#19	GNDD#16	6.93795e-18	$X=-1.7955 $Y=26.0335
C23	GNDD#24	GNDD#27	6.93795e-18	$X=-1.7955 $Y=66.05
C24	GNDD#24	GNDD	7.70235e-18	$X=-2.98 $Y=66.077
C25	GNDD#13	GNDD#1	7.75575e-18	$X=3000.6605 $Y=25.8545
C26	IN	GNDD	2.04941e-15	$X=-5.1225 $Y=27.2445
C27	OUT	GNDD	1.93101e-16	$X=3002.701 $Y=27.7295
C28	OUT2	GNDD	1.96938e-16	$X=3003.0285 $Y=64.8015
C29	VDDD	GNDD	9.20515e-13	$X=1415.182 $Y=45.983
C30	B	GNDD	5.86223e-17	$X=3001.104 $Y=65.599
C31	IN#9	GNDD	2.29251e-17	$X=-1.5975 $Y=63.7285
C32	IN#50	GNDD	2.42764e-17	$X=-1.5975 $Y=28.355
C33	A#5	GNDD	5.65815e-18	$X=3001.104 $Y=26.714
C34	B#5	GNDD	5.70733e-18	$X=3000.214 $Y=65.369
C35	A#4	GNDD	5.70733e-18	$X=3000.214 $Y=26.714
C36	IN#48	GNDD	6.96137e-18	$X=-1.605 $Y=26.594
C37	IN#15	GNDD	1.46863e-17	$X=-2.495 $Y=65.4895
C38	IN#37	GNDD	1.28337e-17	$X=-2.495 $Y=26.594
C39	IN#23	GNDD	1.20679e-17	$X=-3.585 $Y=65.4895
C40	B#50	GNDD	5.02328e-17	$X=2996.72 $Y=64.844
C41	B#42	GNDD	5.62976e-17	$X=2997.8815 $Y=64.844
C42	VDDD#24	GNDD	1.0825e-17	$X=3001.4385 $Y=28.584
C43	OUT2#7	GNDD	5.64298e-19	$X=3000.669 $Y=63.674
C44	OUT#6	GNDD	5.64298e-19	$X=3000.669 $Y=28.4095
C45	B#28	GNDD	2.98789e-22	$X=-2.05 $Y=65.6395
C46	A#30	GNDD	2.99774e-22	$X=-2.05 $Y=26.4445
C47	B#16	GNDD	4.01493e-19	$X=-1.9445 $Y=63.674
C48	A#18	GNDD	5.42599e-19	$X=-1.9445 $Y=28.4095
C49	VDDD#39	GNDD	1.88064e-18	$X=-2.6395 $Y=63.674
C50	B#23	GNDD	4.94269e-19	$X=-3.3345 $Y=63.674
C51	A#25	GNDD	4.96256e-19	$X=-3.3345 $Y=28.4095
C52	IN#54	GNDD	1.96354e-15	$X=-5.3255 $Y=55.532
C53	IN#53	GNDD	8.13509e-17	$X=-4.483 $Y=64.829
C54	IN#52	GNDD	1.47367e-16	$X=-3.699 $Y=64.829
C55	IN#56	GNDD	2.0682e-16	$X=-3.9 $Y=27.2545
C56	B#18	GNDD	3.31795e-16	$X=-2.6985 $Y=64.8115
C57	B#15	GNDD	4.41711e-17	$X=-1.972 $Y=64.1995
C58	B#22	GNDD	1.50236e-16	$X=-3.8575 $Y=65.424
C59	B#24	GNDD	7.12037e-17	$X=-3.3375 $Y=64.1995
C60	B#26	GNDD	9.91463e-17	$X=-1.41 $Y=64.844
C61	B#29	GNDD	4.46405e-17	$X=-2.0525 $Y=65.4245
C62	B#33	GNDD	7.42245e-17	$X=2999.7995 $Y=64.829
C63	B#32	GNDD	1.14712e-16	$X=3000.2195 $Y=64.829
C64	B#34	GNDD	7.25694e-17	$X=2998.794 $Y=64.8445
C65	A#20	GNDD	1.24684e-13	$X=748.384 $Y=27.291
C66	A#17	GNDD	4.40957e-17	$X=-1.972 $Y=27.8845
C67	A#24	GNDD	1.62671e-16	$X=-3.8575 $Y=26.6595
C68	A#26	GNDD	7.15251e-17	$X=-3.3375 $Y=27.8845
C69	A#28	GNDD	1.24403e-13	$X=2248.9555 $Y=27.291
C70	A#29	GNDD	1.13394e-16	$X=3000.219 $Y=27.2545
C71	A#31	GNDD	4.48647e-17	$X=-2.0525 $Y=26.6595
C72	OUT#5	GNDD	1.87028e-16	$X=3000.939 $Y=27.6605
C73	OUT#1	GNDD	1.60941e-16	$X=3000.939 $Y=26.8925
C74	OUT2#6	GNDD	1.11669e-16	$X=3000.939 $Y=64.2815
C75	OUT2#5	GNDD	1.38788e-16	$X=3001.4895 $Y=64.829
C76	OUT2#1	GNDD	1.20163e-16	$X=3000.939 $Y=65.3405
C77	VDDD#4	GNDD	8.97913e-16	$X=3000.645 $Y=60.3755
C78	VDDD#1	GNDD	3.15868e-17	$X=3001.4545 $Y=63.0725
C79	VDDD#7	GNDD	9.16355e-13	$X=2230.2505 $Y=44.3615
C80	VDDD#17	GNDD	5.67758e-17	$X=-4.03 $Y=29.0045
C81	VDDD#21	GNDD	2.86694e-17	$X=2999.8765 $Y=63.07
C82	VDDD#25	GNDD	4.23851e-17	$X=3001.4545 $Y=29.012
C83	VDDD#29	GNDD	2.79947e-17	$X=2999.8765 $Y=29.013
C84	VDDD#32	GNDD	3.75181e-17	$X=-1.275 $Y=28.982
C85	VDDD#35	GNDD	2.82053e-17	$X=-1.275 $Y=63.1015
C86	VDDD#38	GNDD	6.49608e-17	$X=-2.64 $Y=29.0045
C87	VDDD#40	GNDD	5.97037e-17	$X=-2.64 $Y=63.0795
C88	VDDD#43	GNDD	4.97944e-17	$X=-4.03 $Y=63.0795
C89	IN#10	GNDD	5.94165e-17	$X=-1.67 $Y=62.971
C90	IN#11	GNDD	2.36746e-17	$X=-2.312 $Y=63.7285
C91	IN#14	GNDD	5.62835e-17	$X=-2.22 $Y=62.971
C92	IN#6	GNDD	1.33673e-16	$X=-2.592 $Y=64.9775
C93	IN#19	GNDD	6.04053e-17	$X=-3.06 $Y=62.971
C94	IN#22	GNDD	6.02888e-17	$X=-3.61 $Y=62.971
C95	IN#8	GNDD	9.6962e-17	$X=-3.507 $Y=64.9775
C96	IN#24	GNDD	7.10044e-17	$X=-3.585 $Y=65.9505
C97	IN#16	GNDD	6.28657e-17	$X=-2.495 $Y=65.9505
C98	IN#1	GNDD	7.12479e-17	$X=-1.605 $Y=65.7995
C99	IN#3	GNDD	1.18886e-16	$X=-1.552 $Y=64.8015
C100	IN#18	GNDD	1.83015e-17	$X=-2.9875 $Y=63.7285
C101	IN#21	GNDD	4.97388e-17	$X=-3.6825 $Y=63.7285
C102	IN#28	GNDD	8.08711e-17	$X=-3.507 $Y=27.105
C103	IN#35	GNDD	6.02888e-17	$X=-3.61 $Y=29.113
C104	IN#31	GNDD	1.28765e-16	$X=-2.592 $Y=27.1055
C105	IN#40	GNDD	6.04053e-17	$X=-3.06 $Y=29.113
C106	IN#42	GNDD	2.00494e-17	$X=-2.312 $Y=28.355
C107	IN#45	GNDD	5.62835e-17	$X=-2.22 $Y=29.113
C108	IN#51	GNDD	5.94861e-17	$X=-1.67 $Y=29.113
C109	IN#49	GNDD	6.45102e-17	$X=-1.605 $Y=26.133
C110	IN#38	GNDD	6.28657e-17	$X=-2.495 $Y=26.133
C111	IN#25	GNDD	8.30378e-17	$X=-3.585 $Y=26.2845
C112	IN#34	GNDD	5.06089e-17	$X=-3.6825 $Y=28.355
C113	IN#39	GNDD	2.31492e-17	$X=-2.9875 $Y=28.355
C114	IN#47	GNDD	1.42028e-16	$X=-1.552 $Y=27.2825
C115	B#8	GNDD	4.72944e-17	$X=3000.969 $Y=62.977
C116	B#3	GNDD	1.03737e-16	$X=3001.089 $Y=64.7615
C117	B#12	GNDD	5.40627e-17	$X=3000.3695 $Y=62.977
C118	B#13	GNDD	1.03119e-16	$X=3000.2435 $Y=64.7605
C119	B#14	GNDD	5.6933e-17	$X=3000.2145 $Y=65.711
C120	B#7	GNDD	1.82225e-17	$X=3001.029 $Y=63.7345
C121	B#11	GNDD	1.56078e-17	$X=3000.309 $Y=63.7345
C122	A#16	GNDD	5.40354e-17	$X=3000.3695 $Y=29.1065
C123	A#2	GNDD	1.02212e-16	$X=3001.089 $Y=27.3225
C124	A#14	GNDD	5.89816e-17	$X=3000.969 $Y=29.1065
C125	A#6	GNDD	5.40538e-17	$X=3001.104 $Y=26.373
C126	A#12	GNDD	5.70977e-17	$X=3000.2145 $Y=26.373
C127	A#9	GNDD	1.03736e-16	$X=3000.2435 $Y=27.3225
C128	A#13	GNDD	2.02033e-17	$X=3001.029 $Y=28.3485
C129	A#15	GNDD	1.63937e-17	$X=3000.309 $Y=28.3485
C130	B#36	GNDD	5.98015e-17	$X=-0.182 $Y=64.8445
C131	B#38	GNDD	4.51969e-17	$X=-0.8075 $Y=64.8445
C132	B#40	GNDD	4.77721e-17	$X=2998.617 $Y=64.844
C133	B#44	GNDD	3.89859e-17	$X=0.646 $Y=64.8445
C134	B#46	GNDD	3.20052e-17	$X=0.048 $Y=64.8445
C135	B#48	GNDD	4.36097e-17	$X=2997.503 $Y=64.844
C136	B#52	GNDD	8.3419e-14	$X=2247.39 $Y=64.84
C137	B#54	GNDD	8.34191e-14	$X=749.812 $Y=64.84
*
*
.ENDS del_test
*
