*
*
*
*                       LINUX           Wed Jul 17 11:21:00 2024
*
*
*
*  PROGRAM  advgen
*
*  Name           : advgen - Quantus - (64-bit)
*  Version        : 23.1.0-p075
*  Build Date     : Tue Sep 26 09:11:43 PDT 2023
*
*  HSPICE LIBRARY
*
* GLOBAL_TEMPERATURE 27
*  OPERATING_TEMPERATURE 27
*  QRC_TECH_DIR /home/saul/pkg/xfab/XKIT/xh018/cadence/v9_0/QRC_pvs/v9_0_1/XH018_1143/QRC-Typ 
*
*!LENGTH_UNITS METERS
*
*
*
*
.SUBCKT emir_test_2 gnda vdda
*
*
*  caps2d version: 10
*
*
*       CANONICAL RESISTOR AND CAP/DIODE CARDS
*
RRR11	gnda#2	vdda#1	rpp1k1 	L=2.5e-05	W=5e-06
RRR0	gnda#4	vdda#3	rpp1k1 	L=2.5e-05	W=5e-06
RRR1	gnda#6	vdda#5	rpp1k1 	L=2.5e-05	W=5e-06
*
*       PARASITIC RESISTOR AND CAP/DIODE CARDS
*
Rf1	vdda#6	vdda#8	0.884209	$MET1	$X=288.615 $Y=11.0755
Rf2	vdda#8	vdda#9	68.647385	$MET1	$X=145.9 $Y=10.785
Rf5	vdda#9	vdda	0.591308	$MET1	$X=2.7225 $Y=15.47
Rf6	vdda	vdda#2	6.133737	$MET1	$X=2.7225 $Y=25.155
Rf8	vdda	vdda#4	22.455324	$MET1	$X=145.9 $Y=20.485
Rf11	gnda#1	gnda	0.889333	$MET1	$X=316.4225 $Y=27.8045
Rf12	gnda	gnda#3	0.002971	$MET1	$X=316.4225 $Y=20.86
Rf13	gnda#3	gnda#5	0.870052	$MET1	$X=314.715 $Y=16.1125
Rg1	vdda#1	vdda#2	1.570080	$POLY1	$X=288.835 $Y=32.115
Rg2	vdda#3	vdda#4	1.570080	$POLY1	$X=288.835 $Y=20.86
Rg3	vdda#5	vdda#6	0.820080	$POLY1	$X=288.835 $Y=11.365
Rg4	gnda#1	gnda#2	0.820080	$POLY1	$X=314.495 $Y=32.115
Rg5	gnda#3	gnda#4	1.570080	$POLY1	$X=314.495 $Y=20.86
Rg6	gnda#5	gnda#6	0.820080	$POLY1	$X=314.495 $Y=11.365
*
*       CAPACITOR CARDS
*
*
C1	vdda	1	4.5347e-14	$X=73.1245 $Y=31.388
C2	gnda#2	1	8.63223e-16	$X=314.539 $Y=32.1145
C3	gnda#4	1	8.56594e-16	$X=314.539 $Y=20.86
C4	gnda#6	1	8.59291e-16	$X=314.539 $Y=11.3655
C5	vdda#1	1	8.70611e-16	$X=288.78 $Y=32.1145
C6	vdda#3	1	8.85356e-16	$X=288.78 $Y=20.86
C7	vdda#5	1	8.86475e-16	$X=288.78 $Y=11.3655
C8	gnda#1	1	1.74775e-15	$X=317.54 $Y=31.1935
C9	gnda#5	1	1.89137e-15	$X=317.535 $Y=12.462
C10	gnda#1	gnda#2	3.03391e-16	$X=314.8015 $Y=32.0365
C11	vdda#6	1	1.86819e-16	$X=288.613 $Y=12.45
C12	gnda#5	gnda#6	2.99988e-16	$X=314.7835 $Y=11.4495
C13	vdda#6	vdda#5	1.3856e-16	$X=288.648 $Y=12.2355
C14	vdda#4	1	1.62911e-14	$X=264.39 $Y=20.752
C15	gnda	gnda#4	3.03534e-16	$X=314.6985 $Y=20.915
C16	vdda#4	vdda#3	2.6113e-16	$X=288.5755 $Y=20.8575
C17	vdda#8	1	1.26223e-14	$X=252.8105 $Y=10.0855
C18	vdda#9	1	1.35245e-14	$X=38.806 $Y=9.589
C19	vdda#8	vdda#5	1.14454e-16	$X=287.45 $Y=11.3155
C20	vdda#2	vdda#1	2.92377e-16	$X=288.6655 $Y=32.1165
C21	vdda#2	1	2.91325e-14	$X=250.8815 $Y=32.881
C22	1	gnda	2.65578e-15	$X=317.4965 $Y=21.971
*
*
.ENDS emir_test_2
*
