*
*
*
*                       LINUX           Wed Aug 14 04:03:41 2024
*
*
*
*  PROGRAM  advgen
*
*  Name           : advgen - Quantus - (64-bit)
*  Version        : 23.1.0-p075
*  Build Date     : Tue Sep 26 09:11:43 PDT 2023
*
*  HSPICE LIBRARY
*
* GLOBAL_TEMPERATURE 27
*  OPERATING_TEMPERATURE 27
*  QRC_TECH_DIR /home/saul/pkg/xfab/XKIT/xh018/cadence/v9_0/QRC_pvs/v9_0_1/XH018_1143/QRC-Typ 
*
*!LENGTH_UNITS METERS
*
*
*
*
*       SUBCIRCUIT DEFINITIONS
*
.SUBCKT MOSVC3 G NW SB
.ENDS
*
.SUBCKT NE3I_6 D G S B NW SB
.ENDS
*

*
.SUBCKT ref_bias BIAS GNDA OUT1 OUT2 RES_BIAS VDDA VREF
*
*
*  caps2d version: 10
*
*       SUBCIRCUIT CALLS
*
XXC2 OUT2#13 GNDA GNDA MOSVC3
+ w=3e-05 l=3e-05 model=mosvc3
XXC2@1 OUT2#7 GNDA GNDA MOSVC3
+ w=3e-05 l=3e-05 model=mosvc3
XXC2@2 OUT2#1 GNDA GNDA MOSVC3
+ w=3e-05 l=3e-05 model=mosvc3
XXC0 OUT1#13 GNDA GNDA MOSVC3
+ w=3e-05 l=3e-05 model=mosvc3
XXC0@1 OUT1#7 GNDA GNDA MOSVC3
+ w=3e-05 l=3e-05 model=mosvc3
XXC0@2 OUT1#1 GNDA GNDA MOSVC3
+ w=3e-05 l=3e-05 model=mosvc3
XXM7@1 COM#283 COM#11 COM#267 COM VDDA GNDA NE3I_6	L=2e-06	W=1e-05
+ AD=4.8e-12	AS=4.8e-12	PD=2.096e-05	PS=2.096e-05
+ NRD=0.0173	NRS=0.0173
XXM12@10 net4#164 VREF#41 COM#253 COM VDDA GNDA NE3I_6	L=2e-06	W=1e-05
+ AD=4.8e-12	AS=4.8e-12	PD=2.096e-05	PS=2.096e-05
+ NRD=0.0173	NRS=0.0173
XXM7@3 COM#279 COM#8 COM#263 COM VDDA GNDA NE3I_6	L=2e-06	W=1e-05
+ AD=4.8e-12	AS=4.8e-12	PD=2.096e-05	PS=2.096e-05
+ NRD=0.0173	NRS=0.0173
XXM24@11 net6#164 RES_BIAS#41 COM#249 COM VDDA GNDA NE3I_6	L=2e-06	W=1e-05
+ AD=4.8e-12	AS=4.8e-12	PD=2.096e-05	PS=2.096e-05
+ NRD=0.0173	NRS=0.0173
XXM24@10 net6#160 RES_BIAS#38 COM#233 COM VDDA GNDA NE3I_6	L=2e-06	W=1e-05
+ AD=4.8e-12	AS=4.8e-12	PD=2.096e-05	PS=2.096e-05
+ NRD=0.0173	NRS=0.0173
XXM12@7 net4#156 VREF#35 COM#213 COM VDDA GNDA NE3I_6	L=2e-06	W=1e-05
+ AD=4.8e-12	AS=4.8e-12	PD=2.096e-05	PS=2.096e-05
+ NRD=0.0173	NRS=0.0173
XXM12@11 net4#160 VREF#38 COM#229 COM VDDA GNDA NE3I_6	L=2e-06	W=1e-05
+ AD=4.8e-12	AS=4.8e-12	PD=2.096e-05	PS=2.096e-05
+ NRD=0.0173	NRS=0.0173
XXM24@7 net6#156 RES_BIAS#35 COM#209 COM VDDA GNDA NE3I_6	L=2e-06	W=1e-05
+ AD=4.8e-12	AS=4.8e-12	PD=2.096e-05	PS=2.096e-05
+ NRD=0.0173	NRS=0.0173
XXM24@9 net6#136 RES_BIAS#32 COM#199 COM VDDA GNDA NE3I_6	L=2e-06	W=1e-05
+ AD=4.8e-12	AS=4.8e-12	PD=2.096e-05	PS=2.096e-05
+ NRD=0.0173	NRS=0.0173
XXM12@1 net4#143 VREF#29 COM#179 COM VDDA GNDA NE3I_6	L=2e-06	W=1e-05
+ AD=4.8e-12	AS=4.8e-12	PD=2.096e-05	PS=2.096e-05
+ NRD=0.0173	NRS=0.0173
XXM12@4 net4#147 VREF#32 COM#195 COM VDDA GNDA NE3I_6	L=2e-06	W=1e-05
+ AD=4.8e-12	AS=4.8e-12	PD=2.096e-05	PS=2.096e-05
+ NRD=0.0173	NRS=0.0173
XXM24@1 net6#132 RES_BIAS#29 COM#175 COM VDDA GNDA NE3I_6	L=2e-06	W=1e-05
+ AD=4.8e-12	AS=4.8e-12	PD=2.096e-05	PS=2.096e-05
+ NRD=0.0173	NRS=0.0173
XXM24 net6#128 RES_BIAS#26 COM#159 COM VDDA GNDA NE3I_6	L=2e-06	W=1e-05
+ AD=4.8e-12	AS=4.8e-12	PD=2.096e-05	PS=2.096e-05
+ NRD=0.0173	NRS=0.0173
XXM12@12 net4#130 VREF#23 COM#145 COM VDDA GNDA NE3I_6	L=2e-06	W=1e-05
+ AD=4.8e-12	AS=4.8e-12	PD=2.096e-05	PS=2.096e-05
+ NRD=0.0173	NRS=0.0173
XXM12@9 net4#139 VREF#26 COM#155 COM VDDA GNDA NE3I_6	L=2e-06	W=1e-05
+ AD=4.8e-12	AS=4.8e-12	PD=2.096e-05	PS=2.096e-05
+ NRD=0.0173	NRS=0.0173
XXM24@12 net6#108 RES_BIAS#23 COM#141 COM VDDA GNDA NE3I_6	L=2e-06	W=1e-05
+ AD=4.8e-12	AS=4.8e-12	PD=2.096e-05	PS=2.096e-05
+ NRD=0.0173	NRS=0.0173
XXM24@2 net6#104 RES_BIAS#20 COM#131 COM VDDA GNDA NE3I_6	L=2e-06	W=1e-05
+ AD=4.8e-12	AS=4.8e-12	PD=2.096e-05	PS=2.096e-05
+ NRD=0.0173	NRS=0.0173
XXM12@2 net4#122 VREF#17 COM#117 COM VDDA GNDA NE3I_6	L=2e-06	W=1e-05
+ AD=4.8e-12	AS=4.8e-12	PD=2.096e-05	PS=2.096e-05
+ NRD=0.0173	NRS=0.0173
XXM12@13 net4#126 VREF#20 COM#127 COM VDDA GNDA NE3I_6	L=2e-06	W=1e-05
+ AD=4.8e-12	AS=4.8e-12	PD=2.096e-05	PS=2.096e-05
+ NRD=0.0173	NRS=0.0173
XXM24@8 net6#100 RES_BIAS#17 COM#113 COM VDDA GNDA NE3I_6	L=2e-06	W=1e-05
+ AD=4.8e-12	AS=4.8e-12	PD=2.096e-05	PS=2.096e-05
+ NRD=0.0173	NRS=0.0173
XXM24@13 net6#81 RES_BIAS#14 COM#103 COM VDDA GNDA NE3I_6	L=2e-06	W=1e-05
+ AD=4.8e-12	AS=4.8e-12	PD=2.096e-05	PS=2.096e-05
+ NRD=0.0173	NRS=0.0173
XXM12@5 net4#109 VREF#11 COM#89 COM VDDA GNDA NE3I_6	L=2e-06	W=1e-05
+ AD=4.8e-12	AS=4.8e-12	PD=2.096e-05	PS=2.096e-05
+ NRD=0.0173	NRS=0.0173
XXM12@3 net4#113 VREF#14 COM#99 COM VDDA GNDA NE3I_6	L=2e-06	W=1e-05
+ AD=4.8e-12	AS=4.8e-12	PD=2.096e-05	PS=2.096e-05
+ NRD=0.0173	NRS=0.0173
XXM24@5 net6#77 RES_BIAS#11 COM#85 COM VDDA GNDA NE3I_6	L=2e-06	W=1e-05
+ AD=4.8e-12	AS=4.8e-12	PD=2.096e-05	PS=2.096e-05
+ NRD=0.0173	NRS=0.0173
XXM24@6 net6#73 RES_BIAS#8 COM#75 COM VDDA GNDA NE3I_6	L=2e-06	W=1e-05
+ AD=4.8e-12	AS=4.8e-12	PD=2.096e-05	PS=2.096e-05
+ NRD=0.0173	NRS=0.0173
XXM12 net4#101 VREF#5 COM#61 COM VDDA GNDA NE3I_6	L=2e-06	W=1e-05
+ AD=4.8e-12	AS=4.8e-12	PD=2.096e-05	PS=2.096e-05
+ NRD=0.0173	NRS=0.0173
XXM12@6 net4#105 VREF#8 COM#71 COM VDDA GNDA NE3I_6	L=2e-06	W=1e-05
+ AD=4.8e-12	AS=4.8e-12	PD=2.096e-05	PS=2.096e-05
+ NRD=0.0173	NRS=0.0173
XXM24@3 net6#69 RES_BIAS#5 COM#57 COM VDDA GNDA NE3I_6	L=2e-06	W=1e-05
+ AD=4.8e-12	AS=4.8e-12	PD=2.096e-05	PS=2.096e-05
+ NRD=0.0173	NRS=0.0173
XXM24@4 net6#65 RES_BIAS#2 COM#47 COM VDDA GNDA NE3I_6	L=2e-06	W=1e-05
+ AD=4.8e-12	AS=4.8e-12	PD=2.096e-05	PS=2.096e-05
+ NRD=0.0173	NRS=0.0173
XXM7 COM#33 COM#5 COM#17 COM VDDA GNDA NE3I_6	L=2e-06	W=1e-05
+ AD=4.8e-12	AS=4.8e-12	PD=2.096e-05	PS=2.096e-05
+ NRD=0.0173	NRS=0.0173
XXM12@8 net4#97 VREF#2 COM#43 COM VDDA GNDA NE3I_6	L=2e-06	W=1e-05
+ AD=4.8e-12	AS=4.8e-12	PD=2.096e-05	PS=2.096e-05
+ NRD=0.0173	NRS=0.0173
XXM7@2 COM#29 COM#2 COM#13 COM VDDA GNDA NE3I_6	L=2e-06	W=1e-05
+ AD=4.8e-12	AS=4.8e-12	PD=2.096e-05	PS=2.096e-05
+ NRD=0.0173	NRS=0.0173
*
*       TRANSISTOR CARDS
*
*
MMM8@3	COM#166	BIAS#26	net5#14	GNDA	ne3	L=2e-06
+ W=1e-05
+ AD=2.7e-12	AS=4.8e-12	PD=1.054e-05	PS=2.096e-05
+ NRD=0.0173	NRS=0.0173
MMM8@2	COM#166	BIAS#29	net5#20	GNDA	ne3	L=2e-06
+ W=1e-05
+ AD=2.7e-12	AS=2.7e-12	PD=1.054e-05	PS=1.054e-05
+ NRD=0.0173	NRS=0.0173
MMM8@4	COM#192	BIAS#32	net5#20	GNDA	ne3	L=2e-06
+ W=1e-05
+ AD=2.7e-12	AS=2.7e-12	PD=1.054e-05	PS=1.054e-05
+ NRD=0.0173	NRS=0.0173
MMM8	COM#192	BIAS#35	net5#31	GNDA	ne3	L=2e-06
+ W=1e-05
+ AD=2.7e-12	AS=2.7e-12	PD=1.054e-05	PS=1.054e-05
+ NRD=0.0173	NRS=0.0173
MMM8@5	COM#220	BIAS#38	net5#31	GNDA	ne3	L=2e-06
+ W=1e-05
+ AD=2.7e-12	AS=2.7e-12	PD=1.054e-05	PS=1.054e-05
+ NRD=0.0173	NRS=0.0173
MMM8@7	COM#220	BIAS#41	net5#42	GNDA	ne3	L=2e-06
+ W=1e-05
+ AD=2.7e-12	AS=2.7e-12	PD=1.054e-05	PS=1.054e-05
+ NRD=0.0173	NRS=0.0173
MMM8@1	COM#246	BIAS#44	net5#42	GNDA	ne3	L=2e-06
+ W=1e-05
+ AD=2.7e-12	AS=2.7e-12	PD=1.054e-05	PS=1.054e-05
+ NRD=0.0173	NRS=0.0173
MMM8@6	COM#246	BIAS#47	net5#48	GNDA	ne3	L=2e-06
+ W=1e-05
+ AD=2.7e-12	AS=4.8e-12	PD=1.054e-05	PS=2.096e-05
+ NRD=0.0173	NRS=0.0173
MMM9@2	BIAS#57	BIAS#2	net123#31	GNDA	ne3	L=2e-06
+ W=1e-05
+ AD=2.7e-12	AS=4.8e-12	PD=1.054e-05	PS=2.096e-05
+ NRD=0.0173	NRS=0.0173
MMM9@3	BIAS#57	BIAS#5	net123#37	GNDA	ne3	L=2e-06
+ W=1e-05
+ AD=2.7e-12	AS=2.7e-12	PD=1.054e-05	PS=1.054e-05
+ NRD=0.0173	NRS=0.0173
MMM9@4	BIAS#73	BIAS#8	net123#37	GNDA	ne3	L=2e-06
+ W=1e-05
+ AD=2.7e-12	AS=2.7e-12	PD=1.054e-05	PS=1.054e-05
+ NRD=0.0173	NRS=0.0173
MMM9	BIAS#73	BIAS#11	net123#43	GNDA	ne3	L=2e-06
+ W=1e-05
+ AD=2.7e-12	AS=2.7e-12	PD=1.054e-05	PS=1.054e-05
+ NRD=0.0173	NRS=0.0173
MMM9@6	BIAS#89	BIAS#14	net123#43	GNDA	ne3	L=2e-06
+ W=1e-05
+ AD=2.7e-12	AS=2.7e-12	PD=1.054e-05	PS=1.054e-05
+ NRD=0.0173	NRS=0.0173
MMM9@5	BIAS#89	BIAS#17	net123#64	GNDA	ne3	L=2e-06
+ W=1e-05
+ AD=2.7e-12	AS=2.7e-12	PD=1.054e-05	PS=1.054e-05
+ NRD=0.0173	NRS=0.0173
MMM9@1	BIAS#105	BIAS#20	net123#64	GNDA	ne3	L=2e-06
+ W=1e-05
+ AD=2.7e-12	AS=2.7e-12	PD=1.054e-05	PS=1.054e-05
+ NRD=0.0173	NRS=0.0173
MMM9@7	BIAS#105	BIAS#23	net123#85	GNDA	ne3	L=2e-06
+ W=1e-05
+ AD=2.7e-12	AS=4.8e-12	PD=1.054e-05	PS=2.096e-05
+ NRD=0.0173	NRS=0.0173
MMM10@3	GNDA#128	GNDA#11	GNDA#108	GNDA	ne3	L=5e-06
+ W=1e-05
+ AD=4.8e-12	AS=4.8e-12	PD=2.096e-05	PS=2.096e-05
+ NRD=0.0173	NRS=0.0173
MMM10	GNDA#133	GNDA#14	GNDA#113	GNDA	ne3	L=5e-06
+ W=1e-05
+ AD=4.8e-12	AS=4.8e-12	PD=2.096e-05	PS=2.096e-05
+ NRD=0.0173	NRS=0.0173
MMM10@1	GNDA#103	GNDA#8	GNDA#88	GNDA	ne3	L=5e-06
+ W=1e-05
+ AD=4.8e-12	AS=4.8e-12	PD=2.096e-05	PS=2.096e-05
+ NRD=0.0173	NRS=0.0173
MMM25@1	net5#36	net123#26	GNDA#93	GNDA	ne3	L=5e-06
+ W=1e-05
+ AD=4.8e-12	AS=4.8e-12	PD=2.096e-05	PS=2.096e-05
+ NRD=0.0173	NRS=0.0173
MMM25	net5#25	net123#20	GNDA#78	GNDA	ne3	L=5e-06
+ W=1e-05
+ AD=4.8e-12	AS=4.8e-12	PD=2.096e-05	PS=2.096e-05
+ NRD=0.0173	NRS=0.0173
MMM13@2	net123#115	net123#23	GNDA#83	GNDA	ne3	L=5e-06
+ W=1e-05
+ AD=4.8e-12	AS=4.8e-12	PD=2.096e-05	PS=2.096e-05
+ NRD=0.0173	NRS=0.0173
MMM13	net123#100	net123#14	GNDA#68	GNDA	ne3	L=5e-06
+ W=1e-05
+ AD=4.8e-12	AS=4.8e-12	PD=2.096e-05	PS=2.096e-05
+ NRD=0.0173	NRS=0.0173
MMM26	net7#105	net123#17	GNDA#73	GNDA	ne3	L=5e-06
+ W=1e-05
+ AD=4.8e-12	AS=4.8e-12	PD=2.096e-05	PS=2.096e-05
+ NRD=0.0173	NRS=0.0173
MMM25@3	net5#8	net123#8	GNDA#58	GNDA	ne3	L=5e-06
+ W=1e-05
+ AD=4.8e-12	AS=4.8e-12	PD=2.096e-05	PS=2.096e-05
+ NRD=0.0173	NRS=0.0173
MMM13@1	net123#79	net123#11	GNDA#63	GNDA	ne3	L=5e-06
+ W=1e-05
+ AD=4.8e-12	AS=4.8e-12	PD=2.096e-05	PS=2.096e-05
+ NRD=0.0173	NRS=0.0173
MMM13@3	net123#58	net123#2	GNDA#48	GNDA	ne3	L=5e-06
+ W=1e-05
+ AD=4.8e-12	AS=4.8e-12	PD=2.096e-05	PS=2.096e-05
+ NRD=0.0173	NRS=0.0173
MMM25@2	net5#3	net123#5	GNDA#53	GNDA	ne3	L=5e-06
+ W=1e-05
+ AD=4.8e-12	AS=4.8e-12	PD=2.096e-05	PS=2.096e-05
+ NRD=0.0173	NRS=0.0173
MMM10@4	GNDA#38	GNDA#2	GNDA#18	GNDA	ne3	L=5e-06
+ W=1e-05
+ AD=4.8e-12	AS=4.8e-12	PD=2.096e-05	PS=2.096e-05
+ NRD=0.0173	NRS=0.0173
MMM10@2	GNDA#43	GNDA#5	GNDA#23	GNDA	ne3	L=5e-06
+ W=1e-05
+ AD=4.8e-12	AS=4.8e-12	PD=2.096e-05	PS=2.096e-05
+ NRD=0.0173	NRS=0.0173
MMM2@5	net2#88	net4#86	VDDA#451	VDDA	pe3	L=2e-06
+ W=1e-05
+ AD=4.8e-12	AS=4.8e-12	PD=2.096e-05	PS=2.096e-05
+ NRD=0.0173	NRS=0.0173
MMM14@8	net8#106	net4#80	VDDA#435	VDDA	pe3	L=2e-06
+ W=1e-05
+ AD=4.8e-12	AS=4.8e-12	PD=2.096e-05	PS=2.096e-05
+ NRD=0.0173	NRS=0.0173
MMM4	net1#46	net4#74	VDDA#419	VDDA	pe3	L=2e-06
+ W=1e-05
+ AD=4.8e-12	AS=4.8e-12	PD=2.096e-05	PS=2.096e-05
+ NRD=0.0173	NRS=0.0173
MMM14@1	net8#100	net4#68	VDDA#403	VDDA	pe3	L=2e-06
+ W=1e-05
+ AD=4.8e-12	AS=4.8e-12	PD=2.096e-05	PS=2.096e-05
+ NRD=0.0173	NRS=0.0173
MMM14@10	net8#112	net4#89	VDDA#459	VDDA	pe3
+ L=2e-06	W=1e-05
+ AD=4.8e-12	AS=4.8e-12	PD=2.096e-05	PS=2.096e-05
+ NRD=0.0173	NRS=0.0173
MMM4@8	net1#58	net4#83	VDDA#443	VDDA	pe3	L=2e-06
+ W=1e-05
+ AD=4.8e-12	AS=4.8e-12	PD=2.096e-05	PS=2.096e-05
+ NRD=0.0173	NRS=0.0173
MMM2@8	net2#82	net4#77	VDDA#427	VDDA	pe3	L=2e-06
+ W=1e-05
+ AD=4.8e-12	AS=4.8e-12	PD=2.096e-05	PS=2.096e-05
+ NRD=0.0173	NRS=0.0173
MMM2	net2#76	net4#71	VDDA#411	VDDA	pe3	L=2e-06
+ W=1e-05
+ AD=4.8e-12	AS=4.8e-12	PD=2.096e-05	PS=2.096e-05
+ NRD=0.0173	NRS=0.0173
MMM2@6	net2#64	net4#62	VDDA#387	VDDA	pe3	L=2e-06
+ W=1e-05
+ AD=4.8e-12	AS=4.8e-12	PD=2.096e-05	PS=2.096e-05
+ NRD=0.0173	NRS=0.0173
MMM14@6	net8#88	net4#56	VDDA#371	VDDA	pe3	L=2e-06
+ W=1e-05
+ AD=4.8e-12	AS=4.8e-12	PD=2.096e-05	PS=2.096e-05
+ NRD=0.0173	NRS=0.0173
MMM4@2	net1#34	net4#50	VDDA#355	VDDA	pe3	L=2e-06
+ W=1e-05
+ AD=4.8e-12	AS=4.8e-12	PD=2.096e-05	PS=2.096e-05
+ NRD=0.0173	NRS=0.0173
MMM14@9	net8#76	net4#44	VDDA#339	VDDA	pe3	L=2e-06
+ W=1e-05
+ AD=4.8e-12	AS=4.8e-12	PD=2.096e-05	PS=2.096e-05
+ NRD=0.0173	NRS=0.0173
MMM14	net8#94	net4#65	VDDA#395	VDDA	pe3	L=2e-06
+ W=1e-05
+ AD=4.8e-12	AS=4.8e-12	PD=2.096e-05	PS=2.096e-05
+ NRD=0.0173	NRS=0.0173
MMM4@1	net1#40	net4#59	VDDA#379	VDDA	pe3	L=2e-06
+ W=1e-05
+ AD=4.8e-12	AS=4.8e-12	PD=2.096e-05	PS=2.096e-05
+ NRD=0.0173	NRS=0.0173
MMM14@11	net8#82	net4#53	VDDA#363	VDDA	pe3
+ L=2e-06	W=1e-05
+ AD=4.8e-12	AS=4.8e-12	PD=2.096e-05	PS=2.096e-05
+ NRD=0.0173	NRS=0.0173
MMM2@4	net2#40	net4#47	VDDA#347	VDDA	pe3	L=2e-06
+ W=1e-05
+ AD=4.8e-12	AS=4.8e-12	PD=2.096e-05	PS=2.096e-05
+ NRD=0.0173	NRS=0.0173
MMM2@1	net2#28	net4#38	VDDA#323	VDDA	pe3	L=2e-06
+ W=1e-05
+ AD=4.8e-12	AS=4.8e-12	PD=2.096e-05	PS=2.096e-05
+ NRD=0.0173	NRS=0.0173
MMM14@2	net8#64	net4#32	VDDA#307	VDDA	pe3	L=2e-06
+ W=1e-05
+ AD=4.8e-12	AS=4.8e-12	PD=2.096e-05	PS=2.096e-05
+ NRD=0.0173	NRS=0.0173
MMM4@7	net1#22	net4#26	VDDA#291	VDDA	pe3	L=2e-06
+ W=1e-05
+ AD=4.8e-12	AS=4.8e-12	PD=2.096e-05	PS=2.096e-05
+ NRD=0.0173	NRS=0.0173
MMM4@3	net1#16	net4#20	VDDA#275	VDDA	pe3	L=2e-06
+ W=1e-05
+ AD=4.8e-12	AS=4.8e-12	PD=2.096e-05	PS=2.096e-05
+ NRD=0.0173	NRS=0.0173
MMM14@3	net8#70	net4#41	VDDA#331	VDDA	pe3	L=2e-06
+ W=1e-05
+ AD=4.8e-12	AS=4.8e-12	PD=2.096e-05	PS=2.096e-05
+ NRD=0.0173	NRS=0.0173
MMM4@6	net1#28	net4#35	VDDA#315	VDDA	pe3	L=2e-06
+ W=1e-05
+ AD=4.8e-12	AS=4.8e-12	PD=2.096e-05	PS=2.096e-05
+ NRD=0.0173	NRS=0.0173
MMM14@7	net8#58	net4#29	VDDA#299	VDDA	pe3	L=2e-06
+ W=1e-05
+ AD=4.8e-12	AS=4.8e-12	PD=2.096e-05	PS=2.096e-05
+ NRD=0.0173	NRS=0.0173
MMM2@2	net2#16	net4#23	VDDA#283	VDDA	pe3	L=2e-06
+ W=1e-05
+ AD=4.8e-12	AS=4.8e-12	PD=2.096e-05	PS=2.096e-05
+ NRD=0.0173	NRS=0.0173
MMM2@3	net2#10	net4#14	VDDA#259	VDDA	pe3	L=2e-06
+ W=1e-05
+ AD=4.8e-12	AS=4.8e-12	PD=2.096e-05	PS=2.096e-05
+ NRD=0.0173	NRS=0.0173
MMM14@4	net8#28	net4#8	VDDA#243	VDDA	pe3	L=2e-06
+ W=1e-05
+ AD=4.8e-12	AS=4.8e-12	PD=2.096e-05	PS=2.096e-05
+ NRD=0.0173	NRS=0.0173
MMM4@9	net1#4	net4#2	VDDA#229	VDDA	pe3	L=2e-06	W=1e-05
+ AD=4.8e-12	AS=4.8e-12	PD=2.096e-05	PS=2.096e-05
+ NRD=0.0173	NRS=0.0173
MMM6	VDDA#217	VDDA#18	VDDA#193	VDDA	pe3	L=2e-06
+ W=1e-05
+ AD=4.8e-12	AS=4.8e-12	PD=2.096e-05	PS=2.096e-05
+ NRD=0.0173	NRS=0.0173
MMM14@5	net8#40	net4#17	VDDA#267	VDDA	pe3	L=2e-06
+ W=1e-05
+ AD=4.8e-12	AS=4.8e-12	PD=2.096e-05	PS=2.096e-05
+ NRD=0.0173	NRS=0.0173
MMM4@4	net1#10	net4#11	VDDA#251	VDDA	pe3	L=2e-06
+ W=1e-05
+ AD=4.8e-12	AS=4.8e-12	PD=2.096e-05	PS=2.096e-05
+ NRD=0.0173	NRS=0.0173
MMM2@9	net2#4	net4#5	VDDA#235	VDDA	pe3	L=2e-06	W=1e-05
+ AD=4.8e-12	AS=4.8e-12	PD=2.096e-05	PS=2.096e-05
+ NRD=0.0173	NRS=0.0173
MMM6@2	VDDA#223	VDDA#21	VDDA#199	VDDA	pe3	L=2e-06
+ W=1e-05
+ AD=4.8e-12	AS=4.8e-12	PD=2.096e-05	PS=2.096e-05
+ NRD=0.0173	NRS=0.0173
MMM5	VDDA#159	VDDA#12	VDDA#144	VDDA	pe3	L=1e-05
+ W=1e-05
+ AD=4.8e-12	AS=4.8e-12	PD=2.096e-05	PS=2.096e-05
+ NRD=0.0173	NRS=0.0173
MMM23@4	net6#245	net6#60	VDDA#134	VDDA	pe3	L=1e-05
+ W=1e-05
+ AD=4.8e-12	AS=4.8e-12	PD=2.096e-05	PS=2.096e-05
+ NRD=0.0173	NRS=0.0173
MMM5@3	VDDA#167	VDDA#16	VDDA#149	VDDA	pe3	L=1e-05
+ W=1e-05
+ AD=4.8e-12	AS=4.8e-12	PD=2.096e-05	PS=2.096e-05
+ NRD=0.0173	NRS=0.0173
MMM22@6	net4#190	net6#64	VDDA#139	VDDA	pe3	L=1e-05
+ W=1e-05
+ AD=4.8e-12	AS=4.8e-12	PD=2.096e-05	PS=2.096e-05
+ NRD=0.0173	NRS=0.0173
MMM22@1	net4#185	net6#52	VDDA#124	VDDA	pe3	L=1e-05
+ W=1e-05
+ AD=4.8e-12	AS=4.8e-12	PD=2.096e-05	PS=2.096e-05
+ NRD=0.0173	NRS=0.0173
MMM23@6	net6#213	net6#44	VDDA#114	VDDA	pe3	L=1e-05
+ W=1e-05
+ AD=4.8e-12	AS=4.8e-12	PD=2.096e-05	PS=2.096e-05
+ NRD=0.0173	NRS=0.0173
MMM23@7	net6#229	net6#56	VDDA#129	VDDA	pe3	L=1e-05
+ W=1e-05
+ AD=4.8e-12	AS=4.8e-12	PD=2.096e-05	PS=2.096e-05
+ NRD=0.0173	NRS=0.0173
MMM22@4	net4#180	net6#48	VDDA#119	VDDA	pe3	L=1e-05
+ W=1e-05
+ AD=4.8e-12	AS=4.8e-12	PD=2.096e-05	PS=2.096e-05
+ NRD=0.0173	NRS=0.0173
MMM22@3	net4#175	net6#36	VDDA#96	VDDA	pe3	L=1e-05
+ W=1e-05
+ AD=4.8e-12	AS=4.8e-12	PD=2.096e-05	PS=2.096e-05
+ NRD=0.0173	NRS=0.0173
MMM23	net6#181	net6#28	VDDA#86	VDDA	pe3	L=1e-05
+ W=1e-05
+ AD=4.8e-12	AS=4.8e-12	PD=2.096e-05	PS=2.096e-05
+ NRD=0.0173	NRS=0.0173
MMM23@2	net6#197	net6#40	VDDA#101	VDDA	pe3	L=1e-05
+ W=1e-05
+ AD=4.8e-12	AS=4.8e-12	PD=2.096e-05	PS=2.096e-05
+ NRD=0.0173	NRS=0.0173
MMM22@7	net4#170	net6#32	VDDA#91	VDDA	pe3	L=1e-05
+ W=1e-05
+ AD=4.8e-12	AS=4.8e-12	PD=2.096e-05	PS=2.096e-05
+ NRD=0.0173	NRS=0.0173
MMM22	net4#153	net6#20	VDDA#76	VDDA	pe3	L=1e-05
+ W=1e-05
+ AD=4.8e-12	AS=4.8e-12	PD=2.096e-05	PS=2.096e-05
+ NRD=0.0173	NRS=0.0173
MMM23@3	net6#125	net6#12	VDDA#66	VDDA	pe3	L=1e-05
+ W=1e-05
+ AD=4.8e-12	AS=4.8e-12	PD=2.096e-05	PS=2.096e-05
+ NRD=0.0173	NRS=0.0173
MMM23@1	net6#153	net6#24	VDDA#81	VDDA	pe3	L=1e-05
+ W=1e-05
+ AD=4.8e-12	AS=4.8e-12	PD=2.096e-05	PS=2.096e-05
+ NRD=0.0173	NRS=0.0173
MMM22@2	net4#136	net6#16	VDDA#71	VDDA	pe3	L=1e-05
+ W=1e-05
+ AD=4.8e-12	AS=4.8e-12	PD=2.096e-05	PS=2.096e-05
+ NRD=0.0173	NRS=0.0173
MMM22@5	net4#119	net6#4	VDDA#56	VDDA	pe3	L=1e-05
+ W=1e-05
+ AD=4.8e-12	AS=4.8e-12	PD=2.096e-05	PS=2.096e-05
+ NRD=0.0173	NRS=0.0173
MMM5@1	VDDA#53	VDDA#4	VDDA#41	VDDA	pe3	L=1e-05
+ W=1e-05
+ AD=4.8e-12	AS=4.8e-12	PD=2.096e-05	PS=2.096e-05
+ NRD=0.0173	NRS=0.0173
MMM23@5	net6#96	net6#8	VDDA#60	VDDA	pe3	L=1e-05
+ W=1e-05
+ AD=4.8e-12	AS=4.8e-12	PD=2.096e-05	PS=2.096e-05
+ NRD=0.0173	NRS=0.0173
MMM5@2	VDDA#47	VDDA#8	VDDA#31	VDDA	pe3	L=1e-05
+ W=1e-05
+ AD=4.8e-12	AS=4.8e-12	PD=2.096e-05	PS=2.096e-05
+ NRD=0.0173	NRS=0.0173
MMM6@3	VDDA#508	VDDA#24	VDDA#495	VDDA	pe3	L=2e-06
+ W=1e-05
+ AD=4.8e-12	AS=4.8e-12	PD=2.096e-05	PS=2.096e-05
+ NRD=0.0173	NRS=0.0173
MMM4@5	net1#76	net4#92	VDDA#467	VDDA	pe3	L=2e-06
+ W=1e-05
+ AD=4.8e-12	AS=4.8e-12	PD=2.096e-05	PS=2.096e-05
+ NRD=0.0173	NRS=0.0173
MMM6@1	VDDA#514	VDDA#27	VDDA#483	VDDA	pe3	L=2e-06
+ W=1e-05
+ AD=4.8e-12	AS=4.8e-12	PD=2.096e-05	PS=2.096e-05
+ NRD=0.0173	NRS=0.0173
MMM2@7	net2#94	net4#95	VDDA#475	VDDA	pe3	L=2e-06
+ W=1e-05
+ AD=4.8e-12	AS=4.8e-12	PD=2.096e-05	PS=2.096e-05
+ NRD=0.0173	NRS=0.0173
MMM0@1	net7#117	net7#2	net102#28	VDDA	pe3	L=2e-06
+ W=1e-05
+ AD=2.7e-12	AS=4.8e-12	PD=1.054e-05	PS=2.096e-05
+ NRD=0.0173	NRS=0.0173
MMM0	net7#117	net7#5	net102#34	VDDA	pe3	L=2e-06
+ W=1e-05
+ AD=2.7e-12	AS=4.8e-12	PD=1.054e-05	PS=2.096e-05
+ NRD=0.0173	NRS=0.0173
MMM28@1	net102#16	net102#2	VDDA#181	VDDA	pe3	L=2e-06
+ W=1e-05
+ AD=2.7e-12	AS=4.8e-12	PD=1.054e-05	PS=2.096e-05
+ NRD=0.0173	NRS=0.0173
MMM28	net102#16	net102#5	VDDA#187	VDDA	pe3	L=2e-06
+ W=1e-05
+ AD=2.7e-12	AS=4.8e-12	PD=1.054e-05	PS=2.096e-05
+ NRD=0.0173	NRS=0.0173
MMM21@7	RES_BIAS#107	net7#8	net8#4	VDDA	pe3	L=1e-06	W=1e-05
+ AD=2.7e-12	AS=4.8e-12	PD=1.054e-05	PS=2.096e-05
+ NRD=0.0173	NRS=0.0173
MMM21	RES_BIAS#107	net7#11	net8#10	VDDA	pe3	L=1e-06
+ W=1e-05
+ AD=2.7e-12	AS=2.7e-12	PD=1.054e-05	PS=1.054e-05
+ NRD=0.0173	NRS=0.0173
MMM21@5	RES_BIAS#113	net7#14	net8#10	VDDA	pe3	L=1e-06
+ W=1e-05
+ AD=2.7e-12	AS=2.7e-12	PD=1.054e-05	PS=1.054e-05
+ NRD=0.0173	NRS=0.0173
MMM21@4	RES_BIAS#113	net7#17	net8#16	VDDA	pe3	L=1e-06
+ W=1e-05
+ AD=2.7e-12	AS=2.7e-12	PD=1.054e-05	PS=1.054e-05
+ NRD=0.0173	NRS=0.0173
MMM21@10	RES_BIAS#119	net7#20	net8#16	VDDA	pe3
+ L=1e-06	W=1e-05
+ AD=2.7e-12	AS=2.7e-12	PD=1.054e-05	PS=1.054e-05
+ NRD=0.0173	NRS=0.0173
MMM21@6	RES_BIAS#119	net7#23	net8#22	VDDA	pe3	L=1e-06
+ W=1e-05
+ AD=2.7e-12	AS=2.7e-12	PD=1.054e-05	PS=1.054e-05
+ NRD=0.0173	NRS=0.0173
MMM21@9	RES_BIAS#125	net7#26	net8#22	VDDA	pe3	L=1e-06
+ W=1e-05
+ AD=2.7e-12	AS=2.7e-12	PD=1.054e-05	PS=1.054e-05
+ NRD=0.0173	NRS=0.0173
MMM21@11	RES_BIAS#125	net7#29	net8#34	VDDA	pe3
+ L=1e-06	W=1e-05
+ AD=2.7e-12	AS=2.7e-12	PD=1.054e-05	PS=1.054e-05
+ NRD=0.0173	NRS=0.0173
MMM21@2	RES_BIAS#131	net7#32	net8#34	VDDA	pe3	L=1e-06
+ W=1e-05
+ AD=2.7e-12	AS=2.7e-12	PD=1.054e-05	PS=1.054e-05
+ NRD=0.0173	NRS=0.0173
MMM21@3	RES_BIAS#131	net7#35	net8#46	VDDA	pe3	L=1e-06
+ W=1e-05
+ AD=2.7e-12	AS=2.7e-12	PD=1.054e-05	PS=1.054e-05
+ NRD=0.0173	NRS=0.0173
MMM21@1	RES_BIAS#137	net7#38	net8#46	VDDA	pe3	L=1e-06
+ W=1e-05
+ AD=2.7e-12	AS=2.7e-12	PD=1.054e-05	PS=1.054e-05
+ NRD=0.0173	NRS=0.0173
MMM21@8	RES_BIAS#137	net7#41	net8#52	VDDA	pe3	L=1e-06
+ W=1e-05
+ AD=2.7e-12	AS=4.8e-12	PD=1.054e-05	PS=2.096e-05
+ NRD=0.0173	NRS=0.0173
MMM3@5	OUT2#40	net7#74	net1#52	VDDA	pe3	L=1e-06
+ W=1e-05
+ AD=2.7e-12	AS=4.8e-12	PD=1.054e-05	PS=2.096e-05
+ NRD=0.0173	NRS=0.0173
MMM3@7	OUT2#40	net7#77	net1#64	VDDA	pe3	L=1e-06
+ W=1e-05
+ AD=2.7e-12	AS=2.7e-12	PD=1.054e-05	PS=1.054e-05
+ NRD=0.0173	NRS=0.0173
MMM3@1	OUT2#46	net7#80	net1#64	VDDA	pe3	L=1e-06
+ W=1e-05
+ AD=2.7e-12	AS=2.7e-12	PD=1.054e-05	PS=1.054e-05
+ NRD=0.0173	NRS=0.0173
MMM3@4	OUT2#46	net7#83	net1#70	VDDA	pe3	L=1e-06
+ W=1e-05
+ AD=2.7e-12	AS=2.7e-12	PD=1.054e-05	PS=1.054e-05
+ NRD=0.0173	NRS=0.0173
MMM3@2	OUT2#52	net7#86	net1#70	VDDA	pe3	L=1e-06
+ W=1e-05
+ AD=2.7e-12	AS=2.7e-12	PD=1.054e-05	PS=1.054e-05
+ NRD=0.0173	NRS=0.0173
MMM3@8	OUT2#52	net7#89	net1#82	VDDA	pe3	L=1e-06
+ W=1e-05
+ AD=2.7e-12	AS=2.7e-12	PD=1.054e-05	PS=1.054e-05
+ NRD=0.0173	NRS=0.0173
MMM3@3	OUT2#58	net7#92	net1#82	VDDA	pe3	L=1e-06
+ W=1e-05
+ AD=2.7e-12	AS=2.7e-12	PD=1.054e-05	PS=1.054e-05
+ NRD=0.0173	NRS=0.0173
MMM3	OUT2#58	net7#95	net1#88	VDDA	pe3	L=1e-06
+ W=1e-05
+ AD=2.7e-12	AS=2.7e-12	PD=1.054e-05	PS=1.054e-05
+ NRD=0.0173	NRS=0.0173
MMM3@9	OUT2#64	net7#98	net1#88	VDDA	pe3	L=1e-06
+ W=1e-05
+ AD=2.7e-12	AS=2.7e-12	PD=1.054e-05	PS=1.054e-05
+ NRD=0.0173	NRS=0.0173
MMM3@6	OUT2#64	net7#101	net1#94	VDDA	pe3	L=1e-06
+ W=1e-05
+ AD=2.7e-12	AS=4.8e-12	PD=1.054e-05	PS=2.096e-05
+ NRD=0.0173	NRS=0.0173
MMM1@9	OUT1#40	net7#44	net2#22	VDDA	pe3	L=1e-06
+ W=1e-05
+ AD=2.7e-12	AS=4.8e-12	PD=1.054e-05	PS=2.096e-05
+ NRD=0.0173	NRS=0.0173
MMM1@2	OUT1#40	net7#47	net2#34	VDDA	pe3	L=1e-06
+ W=1e-05
+ AD=2.7e-12	AS=2.7e-12	PD=1.054e-05	PS=1.054e-05
+ NRD=0.0173	NRS=0.0173
MMM1@7	OUT1#46	net7#50	net2#34	VDDA	pe3	L=1e-06
+ W=1e-05
+ AD=2.7e-12	AS=2.7e-12	PD=1.054e-05	PS=1.054e-05
+ NRD=0.0173	NRS=0.0173
MMM1@4	OUT1#46	net7#53	net2#46	VDDA	pe3	L=1e-06
+ W=1e-05
+ AD=2.7e-12	AS=2.7e-12	PD=1.054e-05	PS=1.054e-05
+ NRD=0.0173	NRS=0.0173
MMM1@6	OUT1#52	net7#56	net2#46	VDDA	pe3	L=1e-06
+ W=1e-05
+ AD=2.7e-12	AS=2.7e-12	PD=1.054e-05	PS=1.054e-05
+ NRD=0.0173	NRS=0.0173
MMM1	OUT1#52	net7#59	net2#52	VDDA	pe3	L=1e-06
+ W=1e-05
+ AD=2.7e-12	AS=2.7e-12	PD=1.054e-05	PS=1.054e-05
+ NRD=0.0173	NRS=0.0173
MMM1@8	OUT1#58	net7#62	net2#52	VDDA	pe3	L=1e-06
+ W=1e-05
+ AD=2.7e-12	AS=2.7e-12	PD=1.054e-05	PS=1.054e-05
+ NRD=0.0173	NRS=0.0173
MMM1@5	OUT1#58	net7#65	net2#58	VDDA	pe3	L=1e-06
+ W=1e-05
+ AD=2.7e-12	AS=2.7e-12	PD=1.054e-05	PS=1.054e-05
+ NRD=0.0173	NRS=0.0173
MMM1@1	OUT1#64	net7#68	net2#58	VDDA	pe3	L=1e-06
+ W=1e-05
+ AD=2.7e-12	AS=2.7e-12	PD=1.054e-05	PS=1.054e-05
+ NRD=0.0173	NRS=0.0173
MMM1@3	OUT1#64	net7#71	net2#70	VDDA	pe3	L=1e-06
+ W=1e-05
+ AD=2.7e-12	AS=4.8e-12	PD=1.054e-05	PS=2.096e-05
+ NRD=0.0173	NRS=0.0173
*
*
*       CANONICAL RESISTOR AND CAP/DIODE CARDS
*
RRR0	net3	RES_BIAS#43	rpp1k1_3 	L=0.0005141	W=4e-06
+ $SUB=GNDA 
*
*       PARASITIC RESISTOR AND CAP/DIODE CARDS
*
Rb94	net4#539	net4#634	1.413494	$METTP	$L=4.0245e-05
+ $W=8.8e-07	$X=174.7425 $Y=134.225
Rb95	net4#634	net4#445	1.647932	$METTP	$L=4.69e-05
+ $W=8.8e-07	$X=154.62 $Y=134.225
Rb177	net4#539	net4#717	1.108955	$METTP	$L=3.16e-05
+ $W=8.8e-07	$X=194.865 $Y=117.945
Rb178	net4#717	net4#718	1.108955	$METTP	$L=3.16e-05
+ $W=8.8e-07	$X=194.865 $Y=86.345
Rb179	net4#718	net4#719	1.108955	$METTP	$L=3.16e-05
+ $W=8.8e-07	$X=194.865 $Y=54.745
Rb182	net4#539	net4#722	1.159330	$METTP	$L=3.303e-05
+ $W=8.8e-07	$X=211.38 $Y=134.225
Rb184	net4#722	net4#724	1.108955	$METTP	$L=3.16e-05
+ $W=8.8e-07	$X=227.895 $Y=117.945
Rb185	net4#724	net4#725	1.108955	$METTP	$L=3.16e-05
+ $W=8.8e-07	$X=227.895 $Y=86.345
Rb186	net4#725	net4#726	1.108955	$METTP	$L=3.16e-05
+ $W=8.8e-07	$X=227.895 $Y=54.745
Rc2	net6#327	net6#350	1.783096	$MET4	$L=3.593e-05
+ $W=1.46e-06	$X=7.62 $Y=147.58
Rc4	net4#506	net4#496	1.783096	$MET4	$L=3.593e-05
+ $W=1.46e-06	$X=9.5 $Y=114.18
Rc6	COM	COM#611	1.512438	$MET4	$L=2.984e-05
+ $W=1.46e-06	$X=11.38 $Y=145.8
Rc9	COM	COM#611	1.512438	$MET4	$L=2.984e-05
+ $W=1.46e-06	$X=68.4 $Y=145.8
Rc14	net6#327	net6#350	1.783096	$MET4	$L=3.593e-05
+ $W=1.46e-06	$X=70.28 $Y=147.58
Rc17	net4#496	net4#506	1.783096	$MET4	$L=3.518e-05
+ $W=1.46e-06	$X=72.16 $Y=149.36
Rc22	net3#14	net3#15	1.193269	$MET4	$L=1.55002e-05
+ $W=9.6e-07	$X=229.175 $Y=7.645
Rc23	net3#15	net3#16	2.432750	$MET4	$L=3.16e-05
+ $W=9.6e-07	$X=229.175 $Y=23.145
Rc24	net3#16	net3#17	2.432750	$MET4	$L=3.16e-05
+ $W=9.6e-07	$X=229.175 $Y=54.745
Rc25	net3#17	net3#18	2.432750	$MET4	$L=3.16e-05
+ $W=9.6e-07	$X=229.175 $Y=86.345
Rc26	net3#18	net3#19	1.350500	$MET4	$L=1.756e-05
+ $W=9.6e-07	$X=229.175 $Y=117.945
Rc27	net3#19	net3#20	2.740313	$MET4	$L=3.559e-05
+ $W=9.6e-07	$X=211.38 $Y=135.505
Rc28	net3#20	net3#21	7.040020	$MET4	$L=9.137e-05
+ $W=9.6e-07	$X=147.9 $Y=135.505
Rc29	net3#21	net3#22	1.244125	$MET4	$L=1.618e-05
+ $W=9.6e-07	$X=102.215 $Y=135.505
Rc30	net3#22	net3#2	1.493539	$MET4	$L=1.94153e-05
+ $W=9.6e-07	$X=92.5075 $Y=119.325
Rc40	net3#20	net3#33	1.350500	$MET4	$L=1.756e-05
+ $W=9.6e-07	$X=193.585 $Y=135.505
Rc41	net3#33	net3#34	2.432750	$MET4	$L=3.16e-05
+ $W=9.6e-07	$X=193.585 $Y=117.945
Rc42	net3#34	net3#35	2.432750	$MET4	$L=3.16e-05
+ $W=9.6e-07	$X=193.585 $Y=86.345
Rc43	net3#35	net3#36	2.432750	$MET4	$L=3.16e-05
+ $W=9.6e-07	$X=193.585 $Y=54.745
Rc44	net3#36	net3#37	1.193269	$MET4	$L=1.55002e-05
+ $W=9.6e-07	$X=193.585 $Y=23.145
Rd27	COM#611	COM#163	2.590495	$MET3	$L=5.29198e-05
+ $W=1.46e-06	$X=69.42 $Y=102.255
Rd84	VREF#169	VREF#170	1.706826	$MET3	$L=1.061e-05
+ $W=4.6e-07	$X=67.605 $Y=131.27
Rd98	VREF#170	VREF	1.716478	$MET3	$L=1.067e-05
+ $W=4.6e-07	$X=12.455 $Y=131.27
Rd159	RES_BIAS	RES_BIAS#225	1.716478	$MET3	$L=1.067e-05
+ $W=4.6e-07	$X=12.455 $Y=130.49
Rd173	RES_BIAS#225	RES_BIAS#239	2.959233	$MET3	$L=1.84153e-05
+ $W=4.6e-07	$X=70.8875 $Y=130.49
Rd174	RES_BIAS#239	RES_BIAS#44	2.933456	$MET3	$L=1.8275e-05
+ $W=4.6e-07	$X=80.095 $Y=130.49
Rd181	VDDA#546	VDDA	1.909085	$MET3	$L=5.0585e-05
+ $W=1.96e-06	$X=34.5175 $Y=205.22
Rd185	VDDA	VDDA#546	1.910047	$MET3	$L=5.06105e-05
+ $W=1.96e-06	$X=100.655 $Y=205.22
Rd192	net4#445	net4#496	2.827459	$MET3	$L=5.5825e-05
+ $W=1.46e-06	$X=100.0775 $Y=160.915
Rd202	net7#318	net7#373	2.996747	$MET3	$L=5.9165e-05
+ $W=1.46e-06	$X=72.79 $Y=46.095
Rd203	net7#373	net7#374	4.053527	$MET3	$L=8.0015e-05
+ $W=1.46e-06	$X=112.7975 $Y=105.26
Rd204	net7#374	net7#375	2.868755	$MET3	$L=5.66198e-05
+ $W=1.46e-06	$X=152.805 $Y=105.26
Rd205	net7#375	net7#114	1.244062	$MET3	$L=2.5205e-05
+ $W=1.46e-06	$X=152.805 $Y=161.88
Rd207	net8#25	net8#37	1.014712	$MET3	$L=2.002e-05
+ $W=1.46e-06	$X=160.855 $Y=192.115
Rd208	net8#37	net8	1.199953	$MET3	$L=2.36947e-05
+ $W=1.46e-06	$X=160.855 $Y=172.095
Rd218	OUT2#67	OUT2	1.687821	$MET3	$L=3.33203e-05
+ $W=1.46e-06	$X=203.96 $Y=141.54
Rd228	net2#7	net2	1.014712	$MET3	$L=2.002e-05	$W=1.46e-06
+ $X=227.575 $Y=190.335
Rd230	net2	net2#19	1.020795	$MET3	$L=2.018e-05
+ $W=1.46e-06	$X=217.485 $Y=165.485
Rd233	net1#120	net1	1.052726	$MET3	$L=2.077e-05
+ $W=1.46e-06	$X=229.355 $Y=198.94
Rd234	net1	net1#7	1.014712	$MET3	$L=2.002e-05	$W=1.46e-06
+ $X=229.355 $Y=188.555
Rd235	net1#7	net1#49	1.019515	$MET3	$L=2.01348e-05
+ $W=1.46e-06	$X=229.355 $Y=168.535
Re11	COM#303	COM#13	1.329479	$MET2	$L=5.40975e-06
+ $W=3e-07	$X=13.12 $Y=132.87
Re12	COM#13	COM#307	1.854933	$MET2	$L=7.52e-06
+ $W=3e-07	$X=13.12 $Y=142.04
Re16	COM#309	COM#17	1.329588	$MET2	$L=5.41025e-06
+ $W=3e-07	$X=13.12 $Y=128.89
Re17	COM#17	COM#313	1.854933	$MET2	$L=7.52e-06
+ $W=3e-07	$X=13.12 $Y=119.72
Re20	COM#315	COM#29	1.854933	$MET2	$L=7.52e-06
+ $W=3e-07	$X=15.66 $Y=145.8
Re21	COM#29	COM#318	1.223467	$MET2	$L=4.96e-06
+ $W=3e-07	$X=15.66 $Y=135.8
Re22	COM#319	COM#33	1.223467	$MET2	$L=4.96e-06
+ $W=3e-07	$X=15.66 $Y=128.43
Re23	COM#33	COM#321	1.854933	$MET2	$L=7.52e-06
+ $W=3e-07	$X=15.66 $Y=119.72
Re26	COM#323	COM#43	1.854933	$MET2	$L=7.52e-06
+ $W=3e-07	$X=16.52 $Y=145.8
Re27	COM#43	COM#326	1.223467	$MET2	$L=4.96e-06
+ $W=3e-07	$X=16.52 $Y=135.8
Re28	COM#327	COM#47	1.223467	$MET2	$L=4.96e-06
+ $W=3e-07	$X=16.52 $Y=128.43
Re29	COM#47	COM#329	1.854933	$MET2	$L=7.52e-06
+ $W=3e-07	$X=16.52 $Y=119.72
Re51	net4#385	net4#97	2.733067	$MET2	$L=1.108e-05
+ $W=3e-07	$X=19.06 $Y=149.36
Re52	net4#97	net4#388	1.223467	$MET2	$L=4.96e-06
+ $W=3e-07	$X=19.06 $Y=135.8
Re53	net6#248	net6#65	1.223467	$MET2	$L=4.96e-06
+ $W=3e-07	$X=19.06 $Y=128.43
Re54	net6#65	net6#250	2.733067	$MET2	$L=1.108e-05
+ $W=3e-07	$X=19.06 $Y=123.48
Re57	COM#341	COM#57	1.854933	$MET2	$L=7.52e-06
+ $W=3e-07	$X=19.92 $Y=145.8
Re58	COM#57	COM#344	1.223467	$MET2	$L=4.96e-06
+ $W=3e-07	$X=19.92 $Y=135.8
Re59	COM#345	COM#61	1.223467	$MET2	$L=4.96e-06
+ $W=3e-07	$X=19.92 $Y=128.43
Re60	COM#61	COM#347	1.854933	$MET2	$L=7.52e-06
+ $W=3e-07	$X=19.92 $Y=119.72
Re79	net6#252	net6#69	2.294000	$MET2	$L=9.3e-06
+ $W=3e-07	$X=22.46 $Y=147.58
Re80	net6#69	net6#255	1.223467	$MET2	$L=4.96e-06
+ $W=3e-07	$X=22.46 $Y=135.8
Re81	net4#389	net4#101	1.223467	$MET2	$L=4.96e-06
+ $W=3e-07	$X=22.46 $Y=128.43
Re82	net4#101	net4#391	2.294000	$MET2	$L=9.3e-06
+ $W=3e-07	$X=22.46 $Y=118.83
Re85	COM#359	COM#71	1.854933	$MET2	$L=7.52e-06
+ $W=3e-07	$X=23.32 $Y=145.8
Re86	COM#71	COM#362	1.223467	$MET2	$L=4.96e-06
+ $W=3e-07	$X=23.32 $Y=135.8
Re87	COM#363	COM#75	1.223467	$MET2	$L=4.96e-06
+ $W=3e-07	$X=23.32 $Y=128.43
Re88	COM#75	COM#365	1.854933	$MET2	$L=7.52e-06
+ $W=3e-07	$X=23.32 $Y=119.72
Re107	net4#393	net4#105	2.733067	$MET2	$L=1.108e-05
+ $W=3e-07	$X=25.86 $Y=149.36
Re108	net4#105	net4#396	1.223467	$MET2	$L=4.96e-06
+ $W=3e-07	$X=25.86 $Y=135.8
Re109	net6#256	net6#73	1.223467	$MET2	$L=4.96e-06
+ $W=3e-07	$X=25.86 $Y=128.43
Re110	net6#73	net6#258	2.733067	$MET2	$L=1.108e-05
+ $W=3e-07	$X=25.86 $Y=123.48
Re113	COM#377	COM#85	1.854933	$MET2	$L=7.52e-06
+ $W=3e-07	$X=26.72 $Y=145.8
Re114	COM#85	COM#380	1.223467	$MET2	$L=4.96e-06
+ $W=3e-07	$X=26.72 $Y=135.8
Re115	COM#381	COM#89	1.223467	$MET2	$L=4.96e-06
+ $W=3e-07	$X=26.72 $Y=128.43
Re116	COM#89	COM#383	1.854933	$MET2	$L=7.52e-06
+ $W=3e-07	$X=26.72 $Y=119.72
Re135	net6#260	net6#77	2.294000	$MET2	$L=9.3e-06
+ $W=3e-07	$X=29.26 $Y=147.58
Re136	net6#77	net6#263	1.223467	$MET2	$L=4.96e-06
+ $W=3e-07	$X=29.26 $Y=135.8
Re137	net4#397	net4#109	1.223467	$MET2	$L=4.96e-06
+ $W=3e-07	$X=29.26 $Y=128.43
Re138	net4#109	net4#399	2.294000	$MET2	$L=9.3e-06
+ $W=3e-07	$X=29.26 $Y=118.83
Re141	COM#395	COM#99	1.854933	$MET2	$L=7.52e-06
+ $W=3e-07	$X=30.12 $Y=145.8
Re142	COM#99	COM#398	1.223467	$MET2	$L=4.96e-06
+ $W=3e-07	$X=30.12 $Y=135.8
Re143	COM#399	COM#103	1.223467	$MET2	$L=4.96e-06
+ $W=3e-07	$X=30.12 $Y=128.43
Re144	COM#103	COM#401	1.854933	$MET2	$L=7.52e-06
+ $W=3e-07	$X=30.12 $Y=119.72
Re163	net4#401	net4#113	2.733067	$MET2	$L=1.108e-05
+ $W=3e-07	$X=32.66 $Y=149.36
Re164	net4#113	net4#404	1.223467	$MET2	$L=4.96e-06
+ $W=3e-07	$X=32.66 $Y=135.8
Re165	net6#264	net6#81	1.223467	$MET2	$L=4.96e-06
+ $W=3e-07	$X=32.66 $Y=128.43
Re166	net6#81	net6#266	2.733067	$MET2	$L=1.108e-05
+ $W=3e-07	$X=32.66 $Y=123.48
Re169	COM#413	COM#113	1.854933	$MET2	$L=7.52e-06
+ $W=3e-07	$X=33.52 $Y=145.8
Re170	COM#113	COM#416	1.223467	$MET2	$L=4.96e-06
+ $W=3e-07	$X=33.52 $Y=135.8
Re171	COM#417	COM#117	1.223467	$MET2	$L=4.96e-06
+ $W=3e-07	$X=33.52 $Y=128.43
Re172	COM#117	COM#419	1.854933	$MET2	$L=7.52e-06
+ $W=3e-07	$X=33.52 $Y=119.72
Re191	net6#268	net6#100	2.294000	$MET2	$L=9.3e-06
+ $W=3e-07	$X=36.06 $Y=147.58
Re192	net6#100	net6#271	1.223467	$MET2	$L=4.96e-06
+ $W=3e-07	$X=36.06 $Y=135.8
Re193	net4#405	net4#122	1.223467	$MET2	$L=4.96e-06
+ $W=3e-07	$X=36.06 $Y=128.43
Re194	net4#122	net4#407	2.294000	$MET2	$L=9.3e-06
+ $W=3e-07	$X=36.06 $Y=118.83
Re197	COM#431	COM#127	1.854933	$MET2	$L=7.52e-06
+ $W=3e-07	$X=36.92 $Y=145.8
Re198	COM#127	COM#434	1.223467	$MET2	$L=4.96e-06
+ $W=3e-07	$X=36.92 $Y=135.8
Re199	COM#435	COM#131	1.223467	$MET2	$L=4.96e-06
+ $W=3e-07	$X=36.92 $Y=128.43
Re200	COM#131	COM#437	1.854933	$MET2	$L=7.52e-06
+ $W=3e-07	$X=36.92 $Y=119.72
Re226	net4#409	net4#126	2.733067	$MET2	$L=1.108e-05
+ $W=3e-07	$X=39.46 $Y=149.36
Re227	net4#126	net4#412	1.223467	$MET2	$L=4.96e-06
+ $W=3e-07	$X=39.46 $Y=135.8
Re228	net6#272	net6#104	1.223467	$MET2	$L=4.96e-06
+ $W=3e-07	$X=39.46 $Y=128.43
Re229	net6#104	net6#274	2.733067	$MET2	$L=1.108e-05
+ $W=3e-07	$X=39.46 $Y=123.48
Re232	COM#449	COM#141	1.854933	$MET2	$L=7.52e-06
+ $W=3e-07	$X=40.32 $Y=145.8
Re233	COM#141	COM#452	1.223467	$MET2	$L=4.96e-06
+ $W=3e-07	$X=40.32 $Y=135.8
Re234	COM#453	COM#145	1.223467	$MET2	$L=4.96e-06
+ $W=3e-07	$X=40.32 $Y=128.43
Re235	COM#145	COM#455	1.854933	$MET2	$L=7.52e-06
+ $W=3e-07	$X=40.32 $Y=119.72
Re254	net6#276	net6#108	2.294000	$MET2	$L=9.3e-06
+ $W=3e-07	$X=42.86 $Y=147.58
Re255	net6#108	net6#279	1.223467	$MET2	$L=4.96e-06
+ $W=3e-07	$X=42.86 $Y=135.8
Re256	net4#413	net4#130	1.223467	$MET2	$L=4.96e-06
+ $W=3e-07	$X=42.86 $Y=128.43
Re257	net4#130	net4#415	2.294000	$MET2	$L=9.3e-06
+ $W=3e-07	$X=42.86 $Y=118.83
Re260	COM#467	COM#155	1.854933	$MET2	$L=7.52e-06
+ $W=3e-07	$X=43.72 $Y=145.8
Re261	COM#155	COM#470	1.223467	$MET2	$L=4.96e-06
+ $W=3e-07	$X=43.72 $Y=135.8
Re262	COM#471	COM#159	1.223467	$MET2	$L=4.96e-06
+ $W=3e-07	$X=43.72 $Y=128.43
Re263	COM#159	COM#473	1.854933	$MET2	$L=7.52e-06
+ $W=3e-07	$X=43.72 $Y=119.72
Re282	net4#417	net4#139	2.733067	$MET2	$L=1.108e-05
+ $W=3e-07	$X=46.26 $Y=149.36
Re283	net4#139	net4#420	1.223467	$MET2	$L=4.96e-06
+ $W=3e-07	$X=46.26 $Y=135.8
Re284	net6#280	net6#128	1.223467	$MET2	$L=4.96e-06
+ $W=3e-07	$X=46.26 $Y=128.43
Re285	net6#128	net6#282	2.733067	$MET2	$L=1.108e-05
+ $W=3e-07	$X=46.26 $Y=123.48
Re288	COM#485	COM#175	1.854933	$MET2	$L=7.52e-06
+ $W=3e-07	$X=47.12 $Y=145.8
Re289	COM#175	COM#488	1.223467	$MET2	$L=4.96e-06
+ $W=3e-07	$X=47.12 $Y=135.8
Re290	COM#489	COM#179	1.223467	$MET2	$L=4.96e-06
+ $W=3e-07	$X=47.12 $Y=128.43
Re291	COM#179	COM#491	1.854933	$MET2	$L=7.52e-06
+ $W=3e-07	$X=47.12 $Y=119.72
Re310	net6#284	net6#132	2.294000	$MET2	$L=9.3e-06
+ $W=3e-07	$X=49.66 $Y=147.58
Re311	net6#132	net6#287	1.223467	$MET2	$L=4.96e-06
+ $W=3e-07	$X=49.66 $Y=135.8
Re312	net4#421	net4#143	1.223467	$MET2	$L=4.96e-06
+ $W=3e-07	$X=49.66 $Y=128.43
Re313	net4#143	net4#423	2.294000	$MET2	$L=9.3e-06
+ $W=3e-07	$X=49.66 $Y=118.83
Re316	COM#503	COM#195	1.854933	$MET2	$L=7.52e-06
+ $W=3e-07	$X=50.52 $Y=145.8
Re317	COM#195	COM#506	1.223467	$MET2	$L=4.96e-06
+ $W=3e-07	$X=50.52 $Y=135.8
Re318	COM#507	COM#199	1.223467	$MET2	$L=4.96e-06
+ $W=3e-07	$X=50.52 $Y=128.43
Re319	COM#199	COM#509	1.854933	$MET2	$L=7.52e-06
+ $W=3e-07	$X=50.52 $Y=119.72
Re338	net4#425	net4#147	2.733067	$MET2	$L=1.108e-05
+ $W=3e-07	$X=53.06 $Y=149.36
Re339	net4#147	net4#428	1.223467	$MET2	$L=4.96e-06
+ $W=3e-07	$X=53.06 $Y=135.8
Re340	net6#288	net6#136	1.223467	$MET2	$L=4.96e-06
+ $W=3e-07	$X=53.06 $Y=128.43
Re341	net6#136	net6#290	2.733067	$MET2	$L=1.108e-05
+ $W=3e-07	$X=53.06 $Y=123.48
Re344	COM#521	COM#209	1.854933	$MET2	$L=7.52e-06
+ $W=3e-07	$X=53.92 $Y=145.8
Re345	COM#209	COM#524	1.223467	$MET2	$L=4.96e-06
+ $W=3e-07	$X=53.92 $Y=135.8
Re346	COM#525	COM#213	1.223467	$MET2	$L=4.96e-06
+ $W=3e-07	$X=53.92 $Y=128.43
Re347	COM#213	COM#527	1.854933	$MET2	$L=7.52e-06
+ $W=3e-07	$X=53.92 $Y=119.72
Re366	net6#292	net6#156	2.294000	$MET2	$L=9.3e-06
+ $W=3e-07	$X=56.46 $Y=147.58
Re367	net6#156	net6#295	1.223467	$MET2	$L=4.96e-06
+ $W=3e-07	$X=56.46 $Y=135.8
Re368	net4#429	net4#156	1.223467	$MET2	$L=4.96e-06
+ $W=3e-07	$X=56.46 $Y=128.43
Re369	net4#156	net4#431	2.294000	$MET2	$L=9.3e-06
+ $W=3e-07	$X=56.46 $Y=118.83
Re372	COM#539	COM#229	1.854933	$MET2	$L=7.52e-06
+ $W=3e-07	$X=57.32 $Y=145.8
Re373	COM#229	COM#542	1.223467	$MET2	$L=4.96e-06
+ $W=3e-07	$X=57.32 $Y=135.8
Re374	COM#543	COM#233	1.223467	$MET2	$L=4.96e-06
+ $W=3e-07	$X=57.32 $Y=128.43
Re375	COM#233	COM#545	1.854933	$MET2	$L=7.52e-06
+ $W=3e-07	$X=57.32 $Y=119.72
Re394	net4#433	net4#160	2.733067	$MET2	$L=1.108e-05
+ $W=3e-07	$X=59.86 $Y=149.36
Re395	net4#160	net4#436	1.223467	$MET2	$L=4.96e-06
+ $W=3e-07	$X=59.86 $Y=135.8
Re396	net6#296	net6#160	1.223467	$MET2	$L=4.96e-06
+ $W=3e-07	$X=59.86 $Y=128.43
Re397	net6#160	net6#298	2.733067	$MET2	$L=1.108e-05
+ $W=3e-07	$X=59.86 $Y=123.48
Re400	COM#557	COM#249	1.854933	$MET2	$L=7.52e-06
+ $W=3e-07	$X=60.72 $Y=145.8
Re401	COM#249	COM#560	1.223467	$MET2	$L=4.96e-06
+ $W=3e-07	$X=60.72 $Y=135.8
Re402	COM#561	COM#253	1.223467	$MET2	$L=4.96e-06
+ $W=3e-07	$X=60.72 $Y=128.43
Re403	COM#253	COM#563	1.854933	$MET2	$L=7.52e-06
+ $W=3e-07	$X=60.72 $Y=119.72
Re455	net6#300	net6#164	2.294000	$MET2	$L=9.3e-06
+ $W=3e-07	$X=63.26 $Y=147.58
Re456	net6#164	net6#303	1.223467	$MET2	$L=4.96e-06
+ $W=3e-07	$X=63.26 $Y=135.8
Re457	net4#437	net4#164	1.223467	$MET2	$L=4.96e-06
+ $W=3e-07	$X=63.26 $Y=128.43
Re458	net4#164	net4#439	2.294000	$MET2	$L=9.3e-06
+ $W=3e-07	$X=63.26 $Y=118.83
Re461	COM#581	COM#263	1.854933	$MET2	$L=7.52e-06
+ $W=3e-07	$X=64.12 $Y=145.8
Re462	COM#263	COM#584	1.223467	$MET2	$L=4.96e-06
+ $W=3e-07	$X=64.12 $Y=135.8
Re463	COM#585	COM#267	1.223467	$MET2	$L=4.96e-06
+ $W=3e-07	$X=64.12 $Y=128.43
Re464	COM#267	COM#587	1.854933	$MET2	$L=7.52e-06
+ $W=3e-07	$X=64.12 $Y=119.72
Re478	COM#599	COM#279	1.854933	$MET2	$L=7.52e-06
+ $W=3e-07	$X=66.66 $Y=145.8
Re479	COM#279	COM#602	1.329479	$MET2	$L=5.40975e-06
+ $W=3e-07	$X=66.66 $Y=135.575
Re484	COM#605	COM#283	1.329588	$MET2	$L=5.41025e-06
+ $W=3e-07	$X=66.66 $Y=128.89
Re485	COM#283	COM#609	1.854933	$MET2	$L=7.52e-06
+ $W=3e-07	$X=66.66 $Y=119.72
Re493	net123#131	net123#132	3.478000	$MET2	$L=2.162e-05
+ $W=4.6e-07	$X=56.25 $Y=41.27
Re494	net123#132	net123#133	1.003826	$MET2	$L=6.24e-06
+ $W=4.6e-07	$X=42.32 $Y=41.27
Re495	net123#133	net123#134	1.003826	$MET2	$L=6.24e-06
+ $W=4.6e-07	$X=36.08 $Y=41.27
Re496	net123#134	net123#135	1.003826	$MET2	$L=6.24e-06
+ $W=4.6e-07	$X=29.84 $Y=41.27
Re497	net123#135	net123#136	2.067174	$MET2	$L=1.36e-05
+ $W=4.6e-07	$X=20.295 $Y=41.27
Re514	net7#318	net7#320	3.962854	$MET2	$L=5.141e-05
+ $W=9.6e-07	$X=38.825 $Y=27.85
Re515	net123#137	net123#28	1.185542	$MET2	$L=1.538e-05
+ $W=9.6e-07	$X=59.37 $Y=25.29
Re536	net7#318	net7#323	1.739000	$MET2	$L=2.256e-05
+ $W=9.6e-07	$X=53.25 $Y=11.76
Re537	net7#323	net7#324	2.223854	$MET2	$L=2.885e-05
+ $W=9.6e-07	$X=27.545 $Y=11.76
Re538	net123#146	net123#147	1.453021	$MET2	$L=1.885e-05
+ $W=9.6e-07	$X=57.635 $Y=9.2
Re540	net123#147	net123#28	1.685042	$MET2	$L=2.261e-05
+ $W=9.6e-07	$X=24.8 $Y=9.2
Re547	net5#11	net5#58	1.333098	$MET2	$L=2.6335e-05
+ $W=1.46e-06	$X=68.23 $Y=52.905
Re551	net5#58	net5#62	1.924000	$MET2	$L=2.496e-05
+ $W=9.6e-07	$X=41.97 $Y=10.48
Re553	net5#58	net5#64	1.395208	$MET2	$L=1.81e-05
+ $W=9.6e-07	$X=57.26 $Y=26.57
Re555	net5#64	net5#66	1.742854	$MET2	$L=2.261e-05
+ $W=9.6e-07	$X=24.425 $Y=26.57
Re558	net5#62	net5#69	1.261854	$MET2	$L=1.637e-05
+ $W=9.6e-07	$X=21.305 $Y=10.48
Re563	GNDA#136	GNDA#140	1.144357	$MET2	$L=3.031e-05
+ $W=1.96e-06	$X=117.24 $Y=100.86
Re565	GNDA#140	GNDA#148	1.135673	$MET2	$L=3.008e-05
+ $W=1.96e-06	$X=117.24 $Y=69.39
Re567	GNDA#148	GNDA	1.144357	$MET2	$L=3.031e-05
+ $W=1.96e-06	$X=117.24 $Y=38.15
Re569	net6#304	net6#305	3.508565	$MET2	$L=2.181e-05
+ $W=4.6e-07	$X=117.835 $Y=201.56
Re570	net6#305	net6#306	1.808174	$MET2	$L=1.124e-05
+ $W=4.6e-07	$X=101.31 $Y=201.56
Re571	net6#306	net6#307	1.808174	$MET2	$L=1.124e-05
+ $W=4.6e-07	$X=90.07 $Y=201.56
Re572	net6#307	net6#308	1.808174	$MET2	$L=1.124e-05
+ $W=4.6e-07	$X=78.83 $Y=201.56
Re573	net6#308	net6#309	1.808174	$MET2	$L=1.124e-05
+ $W=4.6e-07	$X=67.59 $Y=201.56
Re574	net6#309	net6#310	1.808174	$MET2	$L=1.124e-05
+ $W=4.6e-07	$X=56.35 $Y=201.56
Re575	net6#310	net6#311	1.808174	$MET2	$L=1.124e-05
+ $W=4.6e-07	$X=45.11 $Y=201.56
Re576	net6#311	net6#312	1.808174	$MET2	$L=1.124e-05
+ $W=4.6e-07	$X=33.87 $Y=201.56
Re577	net6#312	net6#313	3.387913	$MET2	$L=2.181e-05
+ $W=4.6e-07	$X=17.72 $Y=201.56
Re607	net6#314	net6#327	1.067425	$MET2	$L=2.181e-05
+ $W=1.46e-06	$X=17.72 $Y=184.38
Re623	net4#441	net4#442	1.942247	$MET2	$L=3.832e-05
+ $W=1.46e-06	$X=25.6 $Y=168.48
Re624	net4#442	net4#443	1.139397	$MET2	$L=2.248e-05
+ $W=1.46e-06	$X=56 $Y=168.48
Re625	net4#443	net4#444	1.139397	$MET2	$L=2.248e-05
+ $W=1.46e-06	$X=78.48 $Y=168.48
Re626	net4#444	net4#445	1.139397	$MET2	$L=2.248e-05
+ $W=1.46e-06	$X=100.96 $Y=168.48
Re628	net6#328	net6#329	1.408027	$MET2	$L=2.778e-05
+ $W=1.46e-06	$X=114.85 $Y=166.7
Re629	net6#329	net6#330	1.139397	$MET2	$L=2.248e-05
+ $W=1.46e-06	$X=89.72 $Y=166.7
Re630	net6#330	net6#331	1.139397	$MET2	$L=2.248e-05
+ $W=1.46e-06	$X=67.24 $Y=166.7
Re631	net6#331	net6#332	1.139397	$MET2	$L=2.248e-05
+ $W=1.46e-06	$X=44.76 $Y=166.7
Re632	net6#332	net6#327	1.334534	$MET2	$L=2.708e-05
+ $W=1.46e-06	$X=20.355 $Y=166.7
Re638	net102#13	net102#43	2.162891	$MET2	$L=1.3485e-05
+ $W=4.6e-07	$X=135.79 $Y=188.2
Re645	net7#325	net7#114	2.448435	$MET2	$L=1.526e-05
+ $W=4.6e-07	$X=154.68 $Y=201.685
Re651	GNDA#156	GNDA#160	1.144357	$MET2	$L=3.031e-05
+ $W=1.96e-06	$X=154.205 $Y=100.8
Re653	GNDA#160	GNDA#168	1.135673	$MET2	$L=3.008e-05
+ $W=1.96e-06	$X=154.205 $Y=69.33
Re655	GNDA#168	GNDA	1.144357	$MET2	$L=3.031e-05
+ $W=1.96e-06	$X=154.205 $Y=38.09
Re671	RES_BIAS#44	RES_BIAS#104	3.365721	$MET2	$L=6.64248e-05
+ $W=1.46e-06	$X=130.3975 $Y=146.62
Re680	OUT2#67	OUT2#69	1.639899	$MET2	$L=3.23747e-05
+ $W=1.46e-06	$X=171.1125 $Y=141.53
Re681	OUT2#69	OUT2#70	1.502808	$MET2	$L=2.969e-05
+ $W=1.46e-06	$X=154.925 $Y=141.53
Re682	OUT2#70	OUT2#71	3.596349	$MET2	$L=7.0995e-05
+ $W=1.46e-06	$X=119.4275 $Y=111.84
Re683	OUT2#71	OUT2#2	1.329478	$MET2	$L=2.62502e-05
+ $W=1.46e-06	$X=83.93 $Y=111.84
Re684	OUT2#2	OUT2#8	1.583397	$MET2	$L=3.124e-05	$W=1.46e-06
+ $X=83.93 $Y=85.59
Re685	OUT2#8	OUT2#14	1.583397	$MET2	$L=3.124e-05
+ $W=1.46e-06	$X=83.93 $Y=54.35
Re692	OUT1	OUT1#73	1.995466	$MET2	$L=3.941e-05
+ $W=1.46e-06	$X=176.7 $Y=139.165
Re693	OUT1#73	OUT1#74	1.564390	$MET2	$L=3.0905e-05
+ $W=1.46e-06	$X=156.995 $Y=139.165
Re694	OUT1#74	OUT1#75	1.827699	$MET2	$L=3.61e-05
+ $W=1.46e-06	$X=138.945 $Y=108.26
Re695	OUT1#75	OUT1#2	1.151067	$MET2	$L=2.27302e-05
+ $W=1.46e-06	$X=120.895 $Y=108.26
Re696	OUT1#2	OUT1#8	1.583397	$MET2	$L=3.124e-05	$W=1.46e-06
+ $X=120.895 $Y=85.53
Re697	OUT1#8	OUT1#14	1.583397	$MET2	$L=3.124e-05
+ $W=1.46e-06	$X=120.895 $Y=54.29
Re735	net7#334	net7#345	1.616739	$MET2	$L=1.005e-05
+ $W=4.6e-07	$X=208.665 $Y=161.88
Re745	net7#345	net7#355	1.608696	$MET2	$L=1e-05
+ $W=4.6e-07	$X=184.78 $Y=161.88
Re757	net7#355	net7#367	1.614326	$MET2	$L=1.0695e-05
+ $W=4.6e-07	$X=157.8225 $Y=161.88
Re845	net4#447	net4#448	3.573583	$MET2	$L=1.159e-05
+ $W=2.4e-07	$X=224.31 $Y=207.405
Re861	net4#448	net4#464	3.201976	$MET2	$L=1.04047e-05
+ $W=2.4e-07	$X=164.7125 $Y=207.405
Re862	net4#464	net4#465	6.160500	$MET2	$L=2.002e-05
+ $W=2.4e-07	$X=159.51 $Y=207.405
Re864	net4#465	net4#467	1.250292	$MET2	$L=4.095e-06
+ $W=2.4e-07	$X=157.025 $Y=187.385
Re865	net4#467	net4#445	7.674464	$MET2	$L=2.529e-05
+ $W=1e-06	$X=144.38 $Y=183.29
Re868	net4#445	net4#471	1.370014	$MET2	$L=2.703e-05
+ $W=1.46e-06	$X=114.475 $Y=186.16
Re869	net4#471	net4#472	1.139397	$MET2	$L=2.248e-05
+ $W=1.46e-06	$X=89.72 $Y=186.16
Re870	net4#472	net4#473	1.139397	$MET2	$L=2.248e-05
+ $W=1.46e-06	$X=67.24 $Y=186.16
Re871	net4#473	net4#474	1.139397	$MET2	$L=2.248e-05
+ $W=1.46e-06	$X=44.76 $Y=186.16
Re872	net4#465	net4#475	3.201976	$MET2	$L=1.04047e-05
+ $W=2.4e-07	$X=164.7125 $Y=187.385
Re888	net4#475	net4#491	3.573583	$MET2	$L=1.159e-05
+ $W=2.4e-07	$X=224.31 $Y=187.385
Re892	net4#474	net4#495	1.372548	$MET2	$L=2.708e-05
+ $W=1.46e-06	$X=19.98 $Y=186.16
Re908	VDDA	VDDA#104	1.841920	$MET2	$L=6.6355e-05
+ $W=2.665e-06	$X=3.9 $Y=204.98
Re909	VDDA	VDDA#178	1.106303	$MET2	$L=2.19373e-05
+ $W=1.46e-06	$X=133.795 $Y=208.3625
Rf2	VDDA#29	VDDA#31	1.368555	$MET1	$L=5.6875e-06
+ $W=3.2e-07	$X=11.74 $Y=170.26
Rf3	VDDA#31	VDDA#33	1.209742	$MET1	$L=5.6725e-06
+ $W=3.2e-07	$X=11.74 $Y=179.121
Rf28	net123#28	net123#31	1.171266	$MET1	$L=4.86775e-06
+ $W=3.2e-07	$X=17.275 $Y=53.8345
Rf29	net123#31	net123#33	1.209742	$MET1	$L=5.6725e-06
+ $W=3.2e-07	$X=17.275 $Y=61.216
Rf31	GNDA#16	GNDA#18	1.281930	$MET1	$L=5.3275e-06
+ $W=3.2e-07	$X=17.71 $Y=29.13
Rf32	GNDA#18	GNDA#20	1.209742	$MET1	$L=5.6725e-06
+ $W=3.2e-07	$X=17.71 $Y=36.971
Rf34	GNDA#21	GNDA#23	1.281930	$MET1	$L=5.3275e-06
+ $W=3.2e-07	$X=17.71 $Y=13.04
Rf35	GNDA#23	GNDA#25	1.209742	$MET1	$L=5.6725e-06
+ $W=3.2e-07	$X=17.71 $Y=20.881
Rf60	BIAS	BIAS#57	1.599579	$MET1	$L=6.64775e-06
+ $W=3.2e-07	$X=19.815 $Y=52.0545
Rf61	BIAS#57	BIAS#59	1.209742	$MET1	$L=5.6725e-06
+ $W=3.2e-07	$X=19.815 $Y=61.216
Rf63	VDDA#34	VDDA#5	1.104412	$MET1	$L=4.59975e-06
+ $W=3.2e-07	$X=17.01 $Y=187.94
Rf65	VDDA#5	VDDA#38	1.035834	$MET1	$L=4.95975e-06
+ $W=3.2e-07	$X=19.1675 $Y=182.68
Rf67	VDDA#39	VDDA#41	1.368555	$MET1	$L=5.6875e-06
+ $W=3.2e-07	$X=11.74 $Y=187.94
Rf68	VDDA#41	VDDA#43	1.209742	$MET1	$L=5.0275e-06
+ $W=3.2e-07	$X=11.74 $Y=196.801
Rf70	VDDA#43	VDDA#1	1.094186	$MET1	$L=4.55725e-06
+ $W=3.2e-07	$X=14.0185 $Y=200.36
Rf71	VDDA#1	VDDA#46	1.209742	$MET1	$L=5.6725e-06
+ $W=3.2e-07	$X=18.811 $Y=200.36
Rf82	VDDA#48	VDDA#47	1.209742	$MET1	$L=5.6725e-06
+ $W=3.2e-07	$X=22.28 $Y=181.635
Rf83	VDDA#47	VDDA#50	1.527367	$MET1	$L=7.0075e-06
+ $W=3.2e-07	$X=22.28 $Y=173.4335
Rf85	VDDA#51	VDDA#53	1.368555	$MET1	$L=5.6875e-06
+ $W=3.2e-07	$X=22.28 $Y=187.94
Rf86	VDDA#53	VDDA#55	1.209742	$MET1	$L=5.6725e-06
+ $W=3.2e-07	$X=22.28 $Y=196.801
Rf97	net123#28	net123#37	1.171266	$MET1	$L=4.86775e-06
+ $W=3.2e-07	$X=22.355 $Y=53.8345
Rf98	net123#37	net123#39	1.209742	$MET1	$L=5.6725e-06
+ $W=3.2e-07	$X=22.355 $Y=61.216
Rf104	GNDA#31	GNDA#6	1.126125	$MET1	$L=4.69e-06
+ $W=3.2e-07	$X=20.48 $Y=29.13
Rf107	VDDA#57	VDDA#56	1.209742	$MET1	$L=5.6725e-06
+ $W=3.2e-07	$X=22.98 $Y=199.315
Rf108	VDDA#56	VDDA#59	1.527367	$MET1	$L=7.0075e-06
+ $W=3.2e-07	$X=22.98 $Y=191.1135
Rf109	VDDA#61	VDDA#60	1.209742	$MET1	$L=5.6725e-06
+ $W=3.2e-07	$X=22.98 $Y=181.635
Rf110	VDDA#60	VDDA#63	1.527367	$MET1	$L=7.0075e-06
+ $W=3.2e-07	$X=22.98 $Y=173.4335
Rf112	GNDA#36	GNDA#38	1.281930	$MET1	$L=5.3275e-06
+ $W=3.2e-07	$X=23.25 $Y=29.13
Rf113	GNDA#38	GNDA#40	1.209742	$MET1	$L=5.6725e-06
+ $W=3.2e-07	$X=23.25 $Y=36.971
Rf115	GNDA#41	GNDA#43	1.281930	$MET1	$L=5.3275e-06
+ $W=3.2e-07	$X=23.25 $Y=13.04
Rf116	GNDA#43	GNDA#45	1.209742	$MET1	$L=5.6725e-06
+ $W=3.2e-07	$X=23.25 $Y=20.881
Rf122	GNDA#46	GNDA#48	1.281930	$MET1	$L=5.3275e-06
+ $W=3.2e-07	$X=23.95 $Y=29.13
Rf123	GNDA#48	GNDA#50	1.209742	$MET1	$L=5.6725e-06
+ $W=3.2e-07	$X=23.95 $Y=36.971
Rf125	GNDA#51	GNDA#53	1.281930	$MET1	$L=5.3275e-06
+ $W=3.2e-07	$X=23.95 $Y=13.04
Rf126	GNDA#53	GNDA#55	1.209742	$MET1	$L=5.6725e-06
+ $W=3.2e-07	$X=23.95 $Y=20.881
Rf133	BIAS	BIAS#73	1.599579	$MET1	$L=6.64775e-06
+ $W=3.2e-07	$X=24.895 $Y=52.0545
Rf134	BIAS#73	BIAS#75	1.209742	$MET1	$L=5.6725e-06
+ $W=3.2e-07	$X=24.895 $Y=61.216
Rf159	net123#28	net123#43	1.171266	$MET1	$L=4.86775e-06
+ $W=3.2e-07	$X=27.435 $Y=53.8345
Rf160	net123#43	net123#45	1.209742	$MET1	$L=5.6725e-06
+ $W=3.2e-07	$X=27.435 $Y=61.216
Rf184	net123#56	net123#58	2.205930	$MET1	$L=9.1675e-06
+ $W=3.2e-07	$X=29.49 $Y=25.29
Rf185	net123#58	net123#60	1.209742	$MET1	$L=5.6725e-06
+ $W=3.2e-07	$X=29.49 $Y=36.971
Rf187	net5	net5#3	1.897930	$MET1	$L=7.8875e-06	$W=3.2e-07
+ $X=29.49 $Y=10.48
Rf188	net5#3	net5#5	1.209742	$MET1	$L=5.6725e-06	$W=3.2e-07
+ $X=29.49 $Y=20.881
Rf198	GNDA#56	GNDA#58	1.281930	$MET1	$L=5.3275e-06
+ $W=3.2e-07	$X=30.19 $Y=29.13
Rf199	GNDA#58	GNDA#60	1.209742	$MET1	$L=5.6725e-06
+ $W=3.2e-07	$X=30.19 $Y=36.971
Rf201	GNDA#61	GNDA#63	1.281930	$MET1	$L=5.3275e-06
+ $W=3.2e-07	$X=30.19 $Y=13.04
Rf202	GNDA#63	GNDA#65	1.209742	$MET1	$L=5.6725e-06
+ $W=3.2e-07	$X=30.19 $Y=20.881
Rf205	BIAS	BIAS#89	1.599579	$MET1	$L=6.64775e-06
+ $W=3.2e-07	$X=29.975 $Y=52.0545
Rf206	BIAS#89	BIAS#91	1.209742	$MET1	$L=5.6725e-06
+ $W=3.2e-07	$X=29.975 $Y=61.216
Rf227	net123#28	net123#64	1.171266	$MET1	$L=4.86775e-06
+ $W=3.2e-07	$X=32.515 $Y=53.8345
Rf228	net123#64	net123#66	1.209742	$MET1	$L=5.6725e-06
+ $W=3.2e-07	$X=32.515 $Y=61.216
Rf229	net6#85	net6	1.035834	$MET1	$L=4.95975e-06
+ $W=3.2e-07	$X=30.4075 $Y=200.36
Rf237	net6#5	net6#95	1.035834	$MET1	$L=4.95975e-06
+ $W=3.2e-07	$X=30.4075 $Y=182.68
Rf238	net6#97	net6#96	1.209742	$MET1	$L=5.6725e-06
+ $W=3.2e-07	$X=33.52 $Y=181.635
Rf239	net6#96	net6#99	2.383992	$MET1	$L=1.05675e-05
+ $W=3.2e-07	$X=33.52 $Y=176.6075
Rf241	net4#117	net4#119	1.955680	$MET1	$L=8.1275e-06
+ $W=3.2e-07	$X=33.52 $Y=186.16
Rf242	net4#119	net4#121	1.209742	$MET1	$L=5.6725e-06
+ $W=3.2e-07	$X=33.52 $Y=196.801
Rf248	VDDA#64	VDDA#66	1.527367	$MET1	$L=6.3475e-06
+ $W=3.2e-07	$X=34.22 $Y=187.94
Rf249	VDDA#66	VDDA#68	1.209742	$MET1	$L=5.6725e-06
+ $W=3.2e-07	$X=34.22 $Y=196.801
Rf251	VDDA#69	VDDA#71	1.527367	$MET1	$L=6.3475e-06
+ $W=3.2e-07	$X=34.22 $Y=170.26
Rf252	VDDA#71	VDDA#73	1.209742	$MET1	$L=5.6725e-06
+ $W=3.2e-07	$X=34.22 $Y=179.121
Rf267	BIAS	BIAS#105	1.599579	$MET1	$L=6.64775e-06
+ $W=3.2e-07	$X=35.055 $Y=52.0545
Rf268	BIAS#105	BIAS#107	1.209742	$MET1	$L=5.6725e-06
+ $W=3.2e-07	$X=35.055 $Y=61.216
Rf276	net5#6	net5#8	1.897930	$MET1	$L=7.8875e-06	$W=3.2e-07
+ $X=35.73 $Y=26.57
Rf277	net5#8	net5#10	1.209742	$MET1	$L=5.6725e-06
+ $W=3.2e-07	$X=35.73 $Y=36.971
Rf279	net123#77	net123#79	2.205930	$MET1	$L=9.1675e-06
+ $W=3.2e-07	$X=35.73 $Y=9.2
Rf280	net123#79	net123#81	1.209742	$MET1	$L=5.6725e-06
+ $W=3.2e-07	$X=35.73 $Y=20.881
Rf290	GNDA#66	GNDA#68	1.281930	$MET1	$L=5.3275e-06
+ $W=3.2e-07	$X=36.43 $Y=29.13
Rf291	GNDA#68	GNDA#70	1.209742	$MET1	$L=5.6725e-06
+ $W=3.2e-07	$X=36.43 $Y=36.971
Rf293	GNDA#71	GNDA#73	1.281930	$MET1	$L=5.3275e-06
+ $W=3.2e-07	$X=36.43 $Y=13.04
Rf294	GNDA#73	GNDA#75	1.209742	$MET1	$L=5.6725e-06
+ $W=3.2e-07	$X=36.43 $Y=20.881
Rf305	net123#28	net123#85	1.171266	$MET1	$L=4.86775e-06
+ $W=3.2e-07	$X=37.595 $Y=53.8345
Rf306	net123#85	net123#87	1.209742	$MET1	$L=5.6725e-06
+ $W=3.2e-07	$X=37.595 $Y=61.216
Rf334	net123#98	net123#100	2.205930	$MET1	$L=9.1675e-06
+ $W=3.2e-07	$X=41.97 $Y=25.29
Rf335	net123#100	net123#102	1.209742	$MET1	$L=5.6725e-06
+ $W=3.2e-07	$X=41.97 $Y=36.971
Rf337	net7#103	net7#105	1.589930	$MET1	$L=6.6075e-06
+ $W=3.2e-07	$X=41.97 $Y=11.76
Rf338	net7#105	net7#107	1.209742	$MET1	$L=5.6725e-06
+ $W=3.2e-07	$X=41.97 $Y=20.881
Rf347	net5#11	net5#14	1.171266	$MET1	$L=4.86775e-06
+ $W=3.2e-07	$X=42.21 $Y=53.6145
Rf348	net5#14	net5#16	1.209742	$MET1	$L=5.6725e-06
+ $W=3.2e-07	$X=42.21 $Y=60.996
Rf350	GNDA#76	GNDA#78	1.281930	$MET1	$L=5.3275e-06
+ $W=3.2e-07	$X=42.67 $Y=29.13
Rf351	GNDA#78	GNDA#80	1.209742	$MET1	$L=5.6725e-06
+ $W=3.2e-07	$X=42.67 $Y=36.971
Rf353	GNDA#81	GNDA#83	1.281930	$MET1	$L=5.3275e-06
+ $W=3.2e-07	$X=42.67 $Y=13.04
Rf354	GNDA#83	GNDA#85	1.209742	$MET1	$L=5.6725e-06
+ $W=3.2e-07	$X=42.67 $Y=20.881
Rf372	net6#112	net6#9	1.035834	$MET1	$L=4.95975e-06
+ $W=3.2e-07	$X=41.6475 $Y=200.36
Rf380	net6#13	net6#122	1.035834	$MET1	$L=4.95975e-06
+ $W=3.2e-07	$X=41.6475 $Y=182.68
Rf382	net6#123	net6#125	2.383992	$MET1	$L=9.9075e-06
+ $W=3.2e-07	$X=44.76 $Y=184.38
Rf383	net6#125	net6#127	1.209742	$MET1	$L=5.6725e-06
+ $W=3.2e-07	$X=44.76 $Y=196.801
Rf385	net4#134	net4#136	1.955680	$MET1	$L=8.1275e-06
+ $W=3.2e-07	$X=44.76 $Y=168.48
Rf386	net4#136	net4#138	1.209742	$MET1	$L=5.6725e-06
+ $W=3.2e-07	$X=44.76 $Y=179.121
Rf389	COM#163	COM#166	1.599579	$MET1	$L=6.64775e-06
+ $W=3.2e-07	$X=44.75 $Y=51.8345
Rf390	COM#166	COM#168	1.209742	$MET1	$L=5.6725e-06
+ $W=3.2e-07	$X=44.75 $Y=60.996
Rf392	VDDA#74	VDDA#76	1.527367	$MET1	$L=6.3475e-06
+ $W=3.2e-07	$X=45.46 $Y=187.94
Rf393	VDDA#76	VDDA#78	1.209742	$MET1	$L=5.6725e-06
+ $W=3.2e-07	$X=45.46 $Y=196.801
Rf395	VDDA#79	VDDA#81	1.527367	$MET1	$L=6.3475e-06
+ $W=3.2e-07	$X=45.46 $Y=170.26
Rf396	VDDA#81	VDDA#83	1.209742	$MET1	$L=5.6725e-06
+ $W=3.2e-07	$X=45.46 $Y=179.121
Rf422	net5#11	net5#20	1.171266	$MET1	$L=4.86775e-06
+ $W=3.2e-07	$X=47.29 $Y=53.6145
Rf423	net5#20	net5#22	1.209742	$MET1	$L=5.6725e-06
+ $W=3.2e-07	$X=47.29 $Y=60.996
Rf433	net5#23	net5#25	1.897930	$MET1	$L=7.8875e-06
+ $W=3.2e-07	$X=48.21 $Y=26.57
Rf434	net5#25	net5#27	1.209742	$MET1	$L=5.6725e-06
+ $W=3.2e-07	$X=48.21 $Y=36.971
Rf436	net123#113	net123#115	2.205930	$MET1	$L=9.1675e-06
+ $W=3.2e-07	$X=48.21 $Y=9.2
Rf437	net123#115	net123#117	1.209742	$MET1	$L=5.6725e-06
+ $W=3.2e-07	$X=48.21 $Y=20.881
Rf439	GNDA#86	GNDA#88	1.281930	$MET1	$L=5.3275e-06
+ $W=3.2e-07	$X=48.91 $Y=29.13
Rf440	GNDA#88	GNDA#90	1.209742	$MET1	$L=5.6725e-06
+ $W=3.2e-07	$X=48.91 $Y=36.971
Rf442	GNDA#91	GNDA#93	1.281930	$MET1	$L=5.3275e-06
+ $W=3.2e-07	$X=48.91 $Y=13.04
Rf443	GNDA#93	GNDA#95	1.209742	$MET1	$L=5.6725e-06
+ $W=3.2e-07	$X=48.91 $Y=20.881
Rf465	COM#163	COM#192	1.599579	$MET1	$L=6.64775e-06
+ $W=3.2e-07	$X=49.83 $Y=51.8345
Rf466	COM#192	COM#194	1.209742	$MET1	$L=5.6725e-06
+ $W=3.2e-07	$X=49.83 $Y=60.996
Rf484	net5#11	net5#31	1.171266	$MET1	$L=4.86775e-06
+ $W=3.2e-07	$X=52.37 $Y=53.6145
Rf485	net5#31	net5#33	1.209742	$MET1	$L=5.6725e-06
+ $W=3.2e-07	$X=52.37 $Y=60.996
Rf512	GNDA#101	GNDA#103	1.281930	$MET1	$L=5.3275e-06
+ $W=3.2e-07	$X=54.45 $Y=29.13
Rf513	GNDA#103	GNDA#105	1.209742	$MET1	$L=5.6725e-06
+ $W=3.2e-07	$X=54.45 $Y=36.971
Rf515	net5#34	net5#36	1.897930	$MET1	$L=7.8875e-06
+ $W=3.2e-07	$X=54.45 $Y=10.48
Rf516	net5#36	net5#38	1.209742	$MET1	$L=5.6725e-06
+ $W=3.2e-07	$X=54.45 $Y=20.881
Rf519	COM#163	COM#220	1.599579	$MET1	$L=6.64775e-06
+ $W=3.2e-07	$X=54.91 $Y=51.8345
Rf520	COM#220	COM#222	1.209742	$MET1	$L=5.6725e-06
+ $W=3.2e-07	$X=54.91 $Y=60.996
Rf522	GNDA#106	GNDA#108	1.281930	$MET1	$L=5.3275e-06
+ $W=3.2e-07	$X=55.15 $Y=29.13
Rf523	GNDA#108	GNDA#110	1.209742	$MET1	$L=5.6725e-06
+ $W=3.2e-07	$X=55.15 $Y=36.971
Rf525	GNDA#111	GNDA#113	1.281930	$MET1	$L=5.3275e-06
+ $W=3.2e-07	$X=55.15 $Y=13.04
Rf526	GNDA#113	GNDA#115	1.209742	$MET1	$L=5.6725e-06
+ $W=3.2e-07	$X=55.15 $Y=20.881
Rf527	net6#140	net6#17	1.035834	$MET1	$L=4.95975e-06
+ $W=3.2e-07	$X=52.8875 $Y=200.36
Rf535	net6#21	net6#150	1.035834	$MET1	$L=4.95975e-06
+ $W=3.2e-07	$X=52.8875 $Y=182.68
Rf543	net4#151	net4#153	1.955680	$MET1	$L=8.1275e-06
+ $W=3.2e-07	$X=56 $Y=186.16
Rf544	net4#153	net4#155	1.209742	$MET1	$L=5.6725e-06
+ $W=3.2e-07	$X=56 $Y=196.801
Rf546	net6#151	net6#153	2.383992	$MET1	$L=9.9075e-06
+ $W=3.2e-07	$X=56 $Y=166.7
Rf547	net6#153	net6#155	1.209742	$MET1	$L=5.6725e-06
+ $W=3.2e-07	$X=56 $Y=179.121
Rf557	VDDA#84	VDDA#86	1.527367	$MET1	$L=6.3475e-06
+ $W=3.2e-07	$X=56.7 $Y=187.94
Rf558	VDDA#86	VDDA#88	1.209742	$MET1	$L=5.6725e-06
+ $W=3.2e-07	$X=56.7 $Y=196.801
Rf560	VDDA#89	VDDA#91	1.527367	$MET1	$L=6.3475e-06
+ $W=3.2e-07	$X=56.7 $Y=170.26
Rf561	VDDA#91	VDDA#93	1.209742	$MET1	$L=5.6725e-06
+ $W=3.2e-07	$X=56.7 $Y=179.121
Rf573	net5#11	net5#42	1.171266	$MET1	$L=4.86775e-06
+ $W=3.2e-07	$X=57.45 $Y=53.6145
Rf574	net5#42	net5#44	1.209742	$MET1	$L=5.6725e-06
+ $W=3.2e-07	$X=57.45 $Y=60.996
Rf599	GNDA#121	GNDA#15	1.126125	$MET1	$L=4.69e-06
+ $W=3.2e-07	$X=57.92 $Y=29.13
Rf604	COM#163	COM#246	1.599579	$MET1	$L=6.64775e-06
+ $W=3.2e-07	$X=59.99 $Y=51.8345
Rf605	COM#246	COM#248	1.209742	$MET1	$L=5.6725e-06
+ $W=3.2e-07	$X=59.99 $Y=60.996
Rf607	GNDA#126	GNDA#128	1.281930	$MET1	$L=5.3275e-06
+ $W=3.2e-07	$X=60.69 $Y=29.13
Rf608	GNDA#128	GNDA#130	1.209742	$MET1	$L=5.6725e-06
+ $W=3.2e-07	$X=60.69 $Y=36.971
Rf610	GNDA#131	GNDA#133	1.281930	$MET1	$L=5.3275e-06
+ $W=3.2e-07	$X=60.69 $Y=13.04
Rf611	GNDA#133	GNDA#135	1.209742	$MET1	$L=5.6725e-06
+ $W=3.2e-07	$X=60.69 $Y=20.881
Rf623	net5#11	net5#48	1.171266	$MET1	$L=4.86775e-06
+ $W=3.2e-07	$X=62.53 $Y=53.6145
Rf624	net5#48	net5#50	1.209742	$MET1	$L=5.6725e-06
+ $W=3.2e-07	$X=62.53 $Y=60.996
Rf657	net6#168	net6#25	1.035834	$MET1	$L=4.95975e-06
+ $W=3.2e-07	$X=64.1275 $Y=200.36
Rf665	net6#29	net6#178	1.035834	$MET1	$L=4.95975e-06
+ $W=3.2e-07	$X=64.1275 $Y=182.68
Rf667	net6#179	net6#181	2.383992	$MET1	$L=9.9075e-06
+ $W=3.2e-07	$X=67.24 $Y=184.38
Rf668	net6#181	net6#183	1.209742	$MET1	$L=5.6725e-06
+ $W=3.2e-07	$X=67.24 $Y=196.801
Rf670	net4#168	net4#170	1.955680	$MET1	$L=8.1275e-06
+ $W=3.2e-07	$X=67.24 $Y=168.48
Rf671	net4#170	net4#172	1.209742	$MET1	$L=5.6725e-06
+ $W=3.2e-07	$X=67.24 $Y=179.121
Rf673	VDDA#94	VDDA#96	1.527367	$MET1	$L=6.3475e-06
+ $W=3.2e-07	$X=67.94 $Y=187.94
Rf674	VDDA#96	VDDA#98	1.209742	$MET1	$L=5.6725e-06
+ $W=3.2e-07	$X=67.94 $Y=196.801
Rf676	VDDA#99	VDDA#101	1.527367	$MET1	$L=6.3475e-06
+ $W=3.2e-07	$X=67.94 $Y=170.26
Rf677	VDDA#101	VDDA#103	1.209742	$MET1	$L=5.6725e-06
+ $W=3.2e-07	$X=67.94 $Y=179.121
Rf680	VDDA#104	VDDA#107	4.843725	$MET1	$L=2.01397e-05
+ $W=3.2e-07	$X=11.2675 $Y=138.16
Rf681	VDDA#107	VDDA#108	13.768562	$MET1	$L=5.724e-05
+ $W=3.2e-07	$X=39.89 $Y=115.97
Rf682	VDDA#108	VDDA#109	7.170625	$MET1	$L=2.982e-05
+ $W=3.2e-07	$X=68.51 $Y=115.97
Rf683	VDDA#109	VDDA#104	13.768562	$MET1	$L=5.724e-05
+ $W=3.2e-07	$X=39.89 $Y=145.79
Rf686	net6#184	net6#33	1.035834	$MET1	$L=4.95975e-06
+ $W=3.2e-07	$X=75.3675 $Y=200.36
Rf694	net6#37	net6#194	1.035834	$MET1	$L=4.95975e-06
+ $W=3.2e-07	$X=75.3675 $Y=182.68
Rf696	net4#173	net4#175	1.955680	$MET1	$L=8.1275e-06
+ $W=3.2e-07	$X=78.48 $Y=186.16
Rf697	net4#175	net4#177	1.209742	$MET1	$L=5.6725e-06
+ $W=3.2e-07	$X=78.48 $Y=196.801
Rf699	net6#195	net6#197	2.383992	$MET1	$L=9.9075e-06
+ $W=3.2e-07	$X=78.48 $Y=166.7
Rf700	net6#197	net6#199	1.209742	$MET1	$L=5.6725e-06
+ $W=3.2e-07	$X=78.48 $Y=179.121
Rf702	VDDA#112	VDDA#114	1.527367	$MET1	$L=6.3475e-06
+ $W=3.2e-07	$X=79.18 $Y=187.94
Rf703	VDDA#114	VDDA#116	1.209742	$MET1	$L=5.6725e-06
+ $W=3.2e-07	$X=79.18 $Y=196.801
Rf705	VDDA#117	VDDA#119	1.527367	$MET1	$L=6.3475e-06
+ $W=3.2e-07	$X=79.18 $Y=170.26
Rf706	VDDA#119	VDDA#121	1.209742	$MET1	$L=5.6725e-06
+ $W=3.2e-07	$X=79.18 $Y=179.121
Rf726	net6#200	net6#41	1.035834	$MET1	$L=4.95975e-06
+ $W=3.2e-07	$X=86.6075 $Y=200.36
Rf734	net6#45	net6#210	1.035834	$MET1	$L=4.95975e-06
+ $W=3.2e-07	$X=86.6075 $Y=182.68
Rf736	net6#211	net6#213	2.383992	$MET1	$L=9.9075e-06
+ $W=3.2e-07	$X=89.72 $Y=184.38
Rf737	net6#213	net6#215	1.209742	$MET1	$L=5.6725e-06
+ $W=3.2e-07	$X=89.72 $Y=196.801
Rf739	net4#178	net4#180	1.955680	$MET1	$L=8.1275e-06
+ $W=3.2e-07	$X=89.72 $Y=168.48
Rf740	net4#180	net4#182	1.209742	$MET1	$L=5.6725e-06
+ $W=3.2e-07	$X=89.72 $Y=179.121
Rf742	VDDA#122	VDDA#124	1.527367	$MET1	$L=6.3475e-06
+ $W=3.2e-07	$X=90.42 $Y=187.94
Rf743	VDDA#124	VDDA#126	1.209742	$MET1	$L=5.6725e-06
+ $W=3.2e-07	$X=90.42 $Y=196.801
Rf745	VDDA#127	VDDA#129	1.527367	$MET1	$L=6.3475e-06
+ $W=3.2e-07	$X=90.42 $Y=170.26
Rf746	VDDA#129	VDDA#131	1.209742	$MET1	$L=5.6725e-06
+ $W=3.2e-07	$X=90.42 $Y=179.121
Rf747	net6#216	net6#49	1.035834	$MET1	$L=4.95975e-06
+ $W=3.2e-07	$X=97.8475 $Y=200.36
Rf755	net6#53	net6#226	1.035834	$MET1	$L=4.95975e-06
+ $W=3.2e-07	$X=97.8475 $Y=182.68
Rf757	net4#183	net4#185	1.955680	$MET1	$L=8.1275e-06
+ $W=3.2e-07	$X=100.96 $Y=186.16
Rf758	net4#185	net4#187	1.209742	$MET1	$L=5.6725e-06
+ $W=3.2e-07	$X=100.96 $Y=196.801
Rf760	net6#227	net6#229	2.383992	$MET1	$L=9.9075e-06
+ $W=3.2e-07	$X=100.96 $Y=166.7
Rf761	net6#229	net6#231	1.209742	$MET1	$L=5.6725e-06
+ $W=3.2e-07	$X=100.96 $Y=179.121
Rf763	VDDA#132	VDDA#134	1.527367	$MET1	$L=6.3475e-06
+ $W=3.2e-07	$X=101.66 $Y=187.94
Rf764	VDDA#134	VDDA#136	1.209742	$MET1	$L=5.6725e-06
+ $W=3.2e-07	$X=101.66 $Y=196.801
Rf766	VDDA#137	VDDA#139	1.527367	$MET1	$L=6.3475e-06
+ $W=3.2e-07	$X=101.66 $Y=170.26
Rf767	VDDA#139	VDDA#141	1.209742	$MET1	$L=5.6725e-06
+ $W=3.2e-07	$X=101.66 $Y=179.121
Rf768	net6#232	net6#57	1.035834	$MET1	$L=4.95975e-06
+ $W=3.2e-07	$X=109.0875 $Y=200.36
Rf776	net6#61	net6#242	1.035834	$MET1	$L=4.95975e-06
+ $W=3.2e-07	$X=109.0875 $Y=182.68
Rf778	net6#243	net6#245	2.383992	$MET1	$L=9.9075e-06
+ $W=3.2e-07	$X=112.2 $Y=184.38
Rf779	net6#245	net6#247	1.209742	$MET1	$L=5.6725e-06
+ $W=3.2e-07	$X=112.2 $Y=196.801
Rf781	net4#188	net4#190	1.955680	$MET1	$L=8.1275e-06
+ $W=3.2e-07	$X=112.2 $Y=168.48
Rf782	net4#190	net4#192	1.209742	$MET1	$L=5.6725e-06
+ $W=3.2e-07	$X=112.2 $Y=179.121
Rf784	VDDA#142	VDDA#144	1.527367	$MET1	$L=6.3475e-06
+ $W=3.2e-07	$X=112.9 $Y=187.94
Rf785	VDDA#144	VDDA#146	1.209742	$MET1	$L=5.6725e-06
+ $W=3.2e-07	$X=112.9 $Y=196.801
Rf787	VDDA#147	VDDA#149	1.527367	$MET1	$L=6.3475e-06
+ $W=3.2e-07	$X=112.9 $Y=170.26
Rf788	VDDA#149	VDDA#151	1.209742	$MET1	$L=5.6725e-06
+ $W=3.2e-07	$X=112.9 $Y=179.121
Rf791	GNDA#136	GNDA#139	7.387211	$MET1	$L=3.07003e-05
+ $W=3.2e-07	$X=100.92 $Y=100.86
Rf794	GNDA#140	GNDA#143	7.387211	$MET1	$L=3.07003e-05
+ $W=3.2e-07	$X=100.92 $Y=70.32
Rf797	GNDA#140	GNDA#147	7.387211	$MET1	$L=3.07003e-05
+ $W=3.2e-07	$X=100.92 $Y=69.62
Rf800	GNDA#148	GNDA#151	7.387211	$MET1	$L=3.07003e-05
+ $W=3.2e-07	$X=100.92 $Y=39.08
Rf803	GNDA#148	GNDA#155	7.387211	$MET1	$L=3.07003e-05
+ $W=3.2e-07	$X=100.92 $Y=38.38
Rf820	VDDA#152	VDDA#13	1.104412	$MET1	$L=4.59975e-06
+ $W=3.2e-07	$X=118.17 $Y=187.94
Rf822	VDDA#13	VDDA#156	1.035834	$MET1	$L=4.95975e-06
+ $W=3.2e-07	$X=120.3275 $Y=182.68
Rf824	VDDA#157	VDDA#159	1.368555	$MET1	$L=5.6875e-06
+ $W=3.2e-07	$X=123.44 $Y=187.94
Rf825	VDDA#159	VDDA#161	1.209742	$MET1	$L=5.0275e-06
+ $W=3.2e-07	$X=123.44 $Y=196.801
Rf828	VDDA#161	VDDA#9	1.209742	$MET1	$L=9.275e-06
+ $W=3.2e-07	$X=119.971 $Y=200.36
Rf830	VDDA#165	VDDA#167	1.368555	$MET1	$L=5.6875e-06
+ $W=3.2e-07	$X=123.44 $Y=170.26
Rf831	VDDA#167	VDDA#169	1.209742	$MET1	$L=5.6725e-06
+ $W=3.2e-07	$X=123.44 $Y=179.121
Rf832	VDDA#170	VDDA#171	9.515515	$MET1	$L=3.9565e-05
+ $W=3.2e-07	$X=130.54 $Y=203.645
Rf833	VDDA#171	VDDA#172	30.247766	$MET1	$L=0.000125725
+ $W=3.2e-07	$X=67.6775 $Y=164.08
Rf834	VDDA#172	VDDA#173	9.515515	$MET1	$L=3.9565e-05
+ $W=3.2e-07	$X=4.815 $Y=164.08
Rf835	VDDA#173	VDDA	15.511890	$MET1	$L=6.468e-05
+ $W=3.2e-07	$X=37.155 $Y=203.645
Rf838	VDDA	VDDA#177	7.287767	$MET1	$L=3.21797e-05
+ $W=3.2e-07	$X=85.5875 $Y=203.645
Rf839	VDDA#177	VDDA#170	6.537130	$MET1	$L=2.88652e-05
+ $W=3.2e-07	$X=116.11 $Y=203.645
Rf842	VDDA#178	VDDA#181	1.751173	$MET1	$L=7.27775e-06
+ $W=3.2e-07	$X=137.79 $Y=187.1345
Rf843	VDDA#181	VDDA#183	1.209742	$MET1	$L=5.6725e-06
+ $W=3.2e-07	$X=137.79 $Y=196.926
Rf851	net102#13	net102#16	1.322860	$MET1	$L=5.49775e-06
+ $W=3.2e-07	$X=140.33 $Y=188.9145
Rf852	net102#16	net102#18	1.209742	$MET1	$L=5.6725e-06
+ $W=3.2e-07	$X=140.33 $Y=196.926
Rf860	VDDA#178	VDDA#187	1.751173	$MET1	$L=7.27775e-06
+ $W=3.2e-07	$X=142.87 $Y=187.1345
Rf861	VDDA#187	VDDA#189	1.209742	$MET1	$L=5.6725e-06
+ $W=3.2e-07	$X=142.87 $Y=196.926
Rf864	net102#13	net102#28	1.322860	$MET1	$L=5.49775e-06
+ $W=3.2e-07	$X=147.35 $Y=188.9145
Rf865	net102#28	net102#30	1.209742	$MET1	$L=5.6725e-06
+ $W=3.2e-07	$X=147.35 $Y=196.926
Rf873	net7#114	net7#117	1.751173	$MET1	$L=7.27775e-06
+ $W=3.2e-07	$X=149.89 $Y=187.1345
Rf874	net7#117	net7#119	1.209742	$MET1	$L=5.6725e-06
+ $W=3.2e-07	$X=149.89 $Y=196.926
Rf882	net102#13	net102#34	1.322860	$MET1	$L=5.49775e-06
+ $W=3.2e-07	$X=152.43 $Y=188.9145
Rf883	net102#34	net102#36	1.209742	$MET1	$L=5.6725e-06
+ $W=3.2e-07	$X=152.43 $Y=196.926
Rf886	GNDA#156	GNDA#159	7.387211	$MET1	$L=3.07003e-05
+ $W=3.2e-07	$X=137.885 $Y=100.8
Rf889	GNDA#160	GNDA#163	7.387211	$MET1	$L=3.07003e-05
+ $W=3.2e-07	$X=137.885 $Y=70.26
Rf892	GNDA#160	GNDA#167	7.387211	$MET1	$L=3.07003e-05
+ $W=3.2e-07	$X=137.885 $Y=69.56
Rf895	GNDA#168	GNDA#171	7.387211	$MET1	$L=3.07003e-05
+ $W=3.2e-07	$X=137.885 $Y=39.02
Rf898	GNDA#168	GNDA#175	7.387211	$MET1	$L=3.07003e-05
+ $W=3.2e-07	$X=137.885 $Y=38.32
Rf901	net8	net8#4	1.322860	$MET1	$L=5.49775e-06	$W=3.2e-07
+ $X=162.07 $Y=149.1095
Rf902	net8#4	net8#6	1.209742	$MET1	$L=5.6725e-06	$W=3.2e-07
+ $X=162.07 $Y=157.121
Rf910	RES_BIAS#104	RES_BIAS#107	1.751173	$MET1	$L=7.27775e-06
+ $W=3.2e-07	$X=163.61 $Y=147.3295
Rf911	RES_BIAS#107	RES_BIAS#109	1.209742	$MET1	$L=5.6725e-06
+ $W=3.2e-07	$X=163.61 $Y=157.121
Rf919	net8	net8#10	1.322860	$MET1	$L=5.49775e-06
+ $W=3.2e-07	$X=165.15 $Y=149.1095
Rf920	net8#10	net8#12	1.209742	$MET1	$L=5.6725e-06
+ $W=3.2e-07	$X=165.15 $Y=157.121
Rf923	VDDA	VDDA#193	1.356547	$MET1	$L=5.63775e-06
+ $W=3.2e-07	$X=165.405 $Y=194.6045
Rf924	VDDA#193	VDDA#195	1.209742	$MET1	$L=5.6725e-06
+ $W=3.2e-07	$X=165.405 $Y=202.756
Rf927	VDDA	VDDA#199	1.356547	$MET1	$L=5.63775e-06
+ $W=3.2e-07	$X=165.405 $Y=174.5845
Rf928	VDDA#199	VDDA#201	1.209742	$MET1	$L=5.6725e-06
+ $W=3.2e-07	$X=165.405 $Y=182.736
Rf936	RES_BIAS#104	RES_BIAS#113	1.751173	$MET1	$L=7.27775e-06
+ $W=3.2e-07	$X=166.69 $Y=147.3295
Rf937	RES_BIAS#113	RES_BIAS#115	1.209742	$MET1	$L=5.6725e-06
+ $W=3.2e-07	$X=166.69 $Y=157.121
Rf945	VDDA	VDDA#211	1.655524	$MET1	$L=6.89025e-06
+ $W=3.2e-07	$X=166.675 $Y=193.185
Rf955	VDDA	VDDA#217	1.356547	$MET1	$L=5.63775e-06
+ $W=3.2e-07	$X=167.945 $Y=194.6045
Rf956	VDDA#217	VDDA#219	1.209742	$MET1	$L=5.6725e-06
+ $W=3.2e-07	$X=167.945 $Y=202.756
Rf959	VDDA	VDDA#223	1.356547	$MET1	$L=5.63775e-06
+ $W=3.2e-07	$X=167.945 $Y=174.5845
Rf960	VDDA#223	VDDA#225	1.209742	$MET1	$L=5.6725e-06
+ $W=3.2e-07	$X=167.945 $Y=182.736
Rf963	net8	net8#16	1.322860	$MET1	$L=5.49775e-06
+ $W=3.2e-07	$X=168.23 $Y=149.1095
Rf964	net8#16	net8#18	1.209742	$MET1	$L=5.6725e-06
+ $W=3.2e-07	$X=168.23 $Y=157.121
Rf967	VDDA	VDDA#229	1.356547	$MET1	$L=5.63775e-06
+ $W=3.2e-07	$X=168.645 $Y=194.6045
Rf968	VDDA#229	VDDA#231	1.209742	$MET1	$L=5.6725e-06
+ $W=3.2e-07	$X=168.645 $Y=202.756
Rf971	VDDA	VDDA#235	1.356547	$MET1	$L=5.63775e-06
+ $W=3.2e-07	$X=168.645 $Y=174.5845
Rf972	VDDA#235	VDDA#237	1.209742	$MET1	$L=5.6725e-06
+ $W=3.2e-07	$X=168.645 $Y=182.736
Rf980	RES_BIAS#104	RES_BIAS#119	1.751173	$MET1	$L=7.27775e-06
+ $W=3.2e-07	$X=169.77 $Y=147.3295
Rf981	RES_BIAS#119	RES_BIAS#121	1.209742	$MET1	$L=5.6725e-06
+ $W=3.2e-07	$X=169.77 $Y=157.121
Rf999	net1	net1#4	2.641485	$MET1	$L=1.09777e-05	$W=3.2e-07
+ $X=171.185 $Y=189.2645
Rf1000	net1#4	net1#6	1.209742	$MET1	$L=5.6725e-06	$W=3.2e-07
+ $X=171.185 $Y=202.756
Rf1003	net2	net2#4	2.213172	$MET1	$L=9.19775e-06	$W=3.2e-07
+ $X=171.185 $Y=171.0245
Rf1004	net2#4	net2#6	1.209742	$MET1	$L=5.6725e-06	$W=3.2e-07
+ $X=171.185 $Y=182.736
Rf1007	net8	net8#22	1.322860	$MET1	$L=5.49775e-06
+ $W=3.2e-07	$X=171.31 $Y=149.1095
Rf1008	net8#22	net8#24	1.209742	$MET1	$L=5.6725e-06
+ $W=3.2e-07	$X=171.31 $Y=157.121
Rf1018	VDDA	VDDA#243	1.210889	$MET1	$L=5.04225e-06
+ $W=3.2e-07	$X=171.885 $Y=195.2
Rf1019	VDDA#243	VDDA#245	1.209742	$MET1	$L=5.6725e-06
+ $W=3.2e-07	$X=171.885 $Y=202.756
Rf1024	VDDA	VDDA#251	1.210889	$MET1	$L=5.04225e-06
+ $W=3.2e-07	$X=171.885 $Y=175.18
Rf1025	VDDA#251	VDDA#253	1.209742	$MET1	$L=5.6725e-06
+ $W=3.2e-07	$X=171.885 $Y=182.736
Rf1028	RES_BIAS#104	RES_BIAS#125	1.751173	$MET1	$L=7.27775e-06
+ $W=3.2e-07	$X=172.85 $Y=147.3295
Rf1029	RES_BIAS#125	RES_BIAS#127	1.209742	$MET1	$L=5.6725e-06
+ $W=3.2e-07	$X=172.85 $Y=157.121
Rf1047	net8#25	net8#28	1.784860	$MET1	$L=7.41775e-06
+ $W=3.2e-07	$X=174.425 $Y=192.8245
Rf1048	net8#28	net8#30	1.209742	$MET1	$L=5.6725e-06
+ $W=3.2e-07	$X=174.425 $Y=202.756
Rf1051	net1#7	net1#10	2.641485	$MET1	$L=1.09777e-05
+ $W=3.2e-07	$X=174.425 $Y=169.2445
Rf1052	net1#10	net1#12	1.209742	$MET1	$L=5.6725e-06
+ $W=3.2e-07	$X=174.425 $Y=182.736
Rf1055	net8	net8#34	1.322860	$MET1	$L=5.49775e-06
+ $W=3.2e-07	$X=174.39 $Y=149.1095
Rf1056	net8#34	net8#36	1.209742	$MET1	$L=5.6725e-06
+ $W=3.2e-07	$X=174.39 $Y=157.121
Rf1066	VDDA	VDDA#259	1.210889	$MET1	$L=5.04225e-06
+ $W=3.2e-07	$X=175.125 $Y=195.2
Rf1067	VDDA#259	VDDA#261	1.209742	$MET1	$L=5.6725e-06
+ $W=3.2e-07	$X=175.125 $Y=202.756
Rf1072	VDDA	VDDA#267	1.210889	$MET1	$L=5.04225e-06
+ $W=3.2e-07	$X=175.125 $Y=175.18
Rf1073	VDDA#267	VDDA#269	1.209742	$MET1	$L=5.6725e-06
+ $W=3.2e-07	$X=175.125 $Y=182.736
Rf1076	RES_BIAS#104	RES_BIAS#131	1.751173	$MET1	$L=7.27775e-06
+ $W=3.2e-07	$X=175.93 $Y=147.3295
Rf1077	RES_BIAS#131	RES_BIAS#133	1.209742	$MET1	$L=5.6725e-06
+ $W=3.2e-07	$X=175.93 $Y=157.121
Rf1095	net2#7	net2#10	2.213172	$MET1	$L=9.19775e-06
+ $W=3.2e-07	$X=177.665 $Y=191.0445
Rf1096	net2#10	net2#12	1.209742	$MET1	$L=5.6725e-06
+ $W=3.2e-07	$X=177.665 $Y=202.756
Rf1099	net8#37	net8#40	1.784860	$MET1	$L=7.41775e-06
+ $W=3.2e-07	$X=177.665 $Y=172.8045
Rf1100	net8#40	net8#42	1.209742	$MET1	$L=5.6725e-06
+ $W=3.2e-07	$X=177.665 $Y=182.736
Rf1103	net8	net8#46	1.322860	$MET1	$L=5.49775e-06
+ $W=3.2e-07	$X=177.47 $Y=149.1095
Rf1104	net8#46	net8#48	1.209742	$MET1	$L=5.6725e-06
+ $W=3.2e-07	$X=177.47 $Y=157.121
Rf1112	RES_BIAS#104	RES_BIAS#137	1.751173	$MET1	$L=7.27775e-06
+ $W=3.2e-07	$X=179.01 $Y=147.3295
Rf1113	RES_BIAS#137	RES_BIAS#139	1.209742	$MET1	$L=5.6725e-06
+ $W=3.2e-07	$X=179.01 $Y=157.121
Rf1118	VDDA	VDDA#275	1.210889	$MET1	$L=5.04225e-06
+ $W=3.2e-07	$X=178.365 $Y=195.2
Rf1119	VDDA#275	VDDA#277	1.209742	$MET1	$L=5.6725e-06
+ $W=3.2e-07	$X=178.365 $Y=202.756
Rf1124	VDDA	VDDA#283	1.210889	$MET1	$L=5.04225e-06
+ $W=3.2e-07	$X=178.365 $Y=175.18
Rf1125	VDDA#283	VDDA#285	1.209742	$MET1	$L=5.6725e-06
+ $W=3.2e-07	$X=178.365 $Y=182.736
Rf1143	net8	net8#52	1.322860	$MET1	$L=5.49775e-06
+ $W=3.2e-07	$X=180.55 $Y=149.1095
Rf1144	net8#52	net8#54	1.209742	$MET1	$L=5.6725e-06
+ $W=3.2e-07	$X=180.55 $Y=157.121
Rf1147	net1	net1#16	2.641485	$MET1	$L=1.09777e-05
+ $W=3.2e-07	$X=180.905 $Y=189.2645
Rf1148	net1#16	net1#18	1.209742	$MET1	$L=5.6725e-06
+ $W=3.2e-07	$X=180.905 $Y=202.756
Rf1151	net2	net2#16	2.213172	$MET1	$L=9.19775e-06
+ $W=3.2e-07	$X=180.905 $Y=171.0245
Rf1152	net2#16	net2#18	1.209742	$MET1	$L=5.6725e-06
+ $W=3.2e-07	$X=180.905 $Y=182.736
Rf1157	VDDA	VDDA#291	1.210889	$MET1	$L=5.04225e-06
+ $W=3.2e-07	$X=181.605 $Y=195.2
Rf1158	VDDA#291	VDDA#293	1.209742	$MET1	$L=5.6725e-06
+ $W=3.2e-07	$X=181.605 $Y=202.756
Rf1163	VDDA	VDDA#299	1.210889	$MET1	$L=5.04225e-06
+ $W=3.2e-07	$X=181.605 $Y=175.18
Rf1164	VDDA#299	VDDA#301	1.209742	$MET1	$L=5.6725e-06
+ $W=3.2e-07	$X=181.605 $Y=182.736
Rf1177	net1	net1#22	2.641485	$MET1	$L=1.09777e-05
+ $W=3.2e-07	$X=184.145 $Y=189.2645
Rf1178	net1#22	net1#24	1.209742	$MET1	$L=5.6725e-06
+ $W=3.2e-07	$X=184.145 $Y=202.756
Rf1181	net8#37	net8#58	1.784860	$MET1	$L=7.41775e-06
+ $W=3.2e-07	$X=184.145 $Y=172.8045
Rf1182	net8#58	net8#60	1.209742	$MET1	$L=5.6725e-06
+ $W=3.2e-07	$X=184.145 $Y=182.736
Rf1187	VDDA	VDDA#307	1.210889	$MET1	$L=5.04225e-06
+ $W=3.2e-07	$X=184.845 $Y=195.2
Rf1188	VDDA#307	VDDA#309	1.209742	$MET1	$L=5.6725e-06
+ $W=3.2e-07	$X=184.845 $Y=202.756
Rf1193	VDDA	VDDA#315	1.210889	$MET1	$L=5.04225e-06
+ $W=3.2e-07	$X=184.845 $Y=175.18
Rf1194	VDDA#315	VDDA#317	1.209742	$MET1	$L=5.6725e-06
+ $W=3.2e-07	$X=184.845 $Y=182.736
Rf1207	net8#25	net8#64	1.784860	$MET1	$L=7.41775e-06
+ $W=3.2e-07	$X=187.385 $Y=192.8245
Rf1208	net8#64	net8#66	1.209742	$MET1	$L=5.6725e-06
+ $W=3.2e-07	$X=187.385 $Y=202.756
Rf1211	net1#7	net1#28	2.641485	$MET1	$L=1.09777e-05
+ $W=3.2e-07	$X=187.385 $Y=169.2445
Rf1212	net1#28	net1#30	1.209742	$MET1	$L=5.6725e-06
+ $W=3.2e-07	$X=187.385 $Y=182.736
Rf1217	VDDA	VDDA#323	1.210889	$MET1	$L=5.04225e-06
+ $W=3.2e-07	$X=188.085 $Y=195.2
Rf1218	VDDA#323	VDDA#325	1.209742	$MET1	$L=5.6725e-06
+ $W=3.2e-07	$X=188.085 $Y=202.756
Rf1223	VDDA	VDDA#331	1.210889	$MET1	$L=5.04225e-06
+ $W=3.2e-07	$X=188.085 $Y=175.18
Rf1224	VDDA#331	VDDA#333	1.209742	$MET1	$L=5.6725e-06
+ $W=3.2e-07	$X=188.085 $Y=182.736
Rf1227	net2#19	net2#22	1.322860	$MET1	$L=5.49775e-06
+ $W=3.2e-07	$X=189.01 $Y=149.1095
Rf1228	net2#22	net2#24	1.209742	$MET1	$L=5.6725e-06
+ $W=3.2e-07	$X=189.01 $Y=157.121
Rf1246	net2#7	net2#28	2.213172	$MET1	$L=9.19775e-06
+ $W=3.2e-07	$X=190.625 $Y=191.0445
Rf1247	net2#28	net2#30	1.209742	$MET1	$L=5.6725e-06
+ $W=3.2e-07	$X=190.625 $Y=202.756
Rf1250	net8#37	net8#70	1.784860	$MET1	$L=7.41775e-06
+ $W=3.2e-07	$X=190.625 $Y=172.8045
Rf1251	net8#70	net8#72	1.209742	$MET1	$L=5.6725e-06
+ $W=3.2e-07	$X=190.625 $Y=182.736
Rf1254	OUT1	OUT1#40	1.751173	$MET1	$L=7.27775e-06
+ $W=3.2e-07	$X=190.55 $Y=147.3295
Rf1255	OUT1#40	OUT1#42	1.209742	$MET1	$L=5.6725e-06
+ $W=3.2e-07	$X=190.55 $Y=157.121
Rf1263	net2#19	net2#34	1.322860	$MET1	$L=5.49775e-06
+ $W=3.2e-07	$X=192.09 $Y=149.1095
Rf1264	net2#34	net2#36	1.209742	$MET1	$L=5.6725e-06
+ $W=3.2e-07	$X=192.09 $Y=157.121
Rf1269	VDDA	VDDA#339	1.210889	$MET1	$L=5.04225e-06
+ $W=3.2e-07	$X=191.325 $Y=195.2
Rf1270	VDDA#339	VDDA#341	1.209742	$MET1	$L=5.6725e-06
+ $W=3.2e-07	$X=191.325 $Y=202.756
Rf1275	VDDA	VDDA#347	1.210889	$MET1	$L=5.04225e-06
+ $W=3.2e-07	$X=191.325 $Y=175.18
Rf1276	VDDA#347	VDDA#349	1.209742	$MET1	$L=5.6725e-06
+ $W=3.2e-07	$X=191.325 $Y=182.736
Rf1294	OUT1	OUT1#46	1.751173	$MET1	$L=7.27775e-06
+ $W=3.2e-07	$X=193.63 $Y=147.3295
Rf1295	OUT1#46	OUT1#48	1.209742	$MET1	$L=5.6725e-06
+ $W=3.2e-07	$X=193.63 $Y=157.121
Rf1298	net8#25	net8#76	1.784860	$MET1	$L=7.41775e-06
+ $W=3.2e-07	$X=193.865 $Y=192.8245
Rf1299	net8#76	net8#78	1.209742	$MET1	$L=5.6725e-06
+ $W=3.2e-07	$X=193.865 $Y=202.756
Rf1302	net2	net2#40	2.213172	$MET1	$L=9.19775e-06
+ $W=3.2e-07	$X=193.865 $Y=171.0245
Rf1303	net2#40	net2#42	1.209742	$MET1	$L=5.6725e-06
+ $W=3.2e-07	$X=193.865 $Y=182.736
Rf1311	net2#19	net2#46	1.322860	$MET1	$L=5.49775e-06
+ $W=3.2e-07	$X=195.17 $Y=149.1095
Rf1312	net2#46	net2#48	1.209742	$MET1	$L=5.6725e-06
+ $W=3.2e-07	$X=195.17 $Y=157.121
Rf1317	VDDA	VDDA#355	1.210889	$MET1	$L=5.04225e-06
+ $W=3.2e-07	$X=194.565 $Y=195.2
Rf1318	VDDA#355	VDDA#357	1.209742	$MET1	$L=5.6725e-06
+ $W=3.2e-07	$X=194.565 $Y=202.756
Rf1323	VDDA	VDDA#363	1.210889	$MET1	$L=5.04225e-06
+ $W=3.2e-07	$X=194.565 $Y=175.18
Rf1324	VDDA#363	VDDA#365	1.209742	$MET1	$L=5.6725e-06
+ $W=3.2e-07	$X=194.565 $Y=182.736
Rf1342	OUT1	OUT1#52	1.751173	$MET1	$L=7.27775e-06
+ $W=3.2e-07	$X=196.71 $Y=147.3295
Rf1343	OUT1#52	OUT1#54	1.209742	$MET1	$L=5.6725e-06
+ $W=3.2e-07	$X=196.71 $Y=157.121
Rf1346	net1	net1#34	2.641485	$MET1	$L=1.09777e-05
+ $W=3.2e-07	$X=197.105 $Y=189.2645
Rf1347	net1#34	net1#36	1.209742	$MET1	$L=5.6725e-06
+ $W=3.2e-07	$X=197.105 $Y=202.756
Rf1350	net8#37	net8#82	1.784860	$MET1	$L=7.41775e-06
+ $W=3.2e-07	$X=197.105 $Y=172.8045
Rf1351	net8#82	net8#84	1.209742	$MET1	$L=5.6725e-06
+ $W=3.2e-07	$X=197.105 $Y=182.736
Rf1359	net2#19	net2#52	1.322860	$MET1	$L=5.49775e-06
+ $W=3.2e-07	$X=198.25 $Y=149.1095
Rf1360	net2#52	net2#54	1.209742	$MET1	$L=5.6725e-06
+ $W=3.2e-07	$X=198.25 $Y=157.121
Rf1365	VDDA	VDDA#371	1.210889	$MET1	$L=5.04225e-06
+ $W=3.2e-07	$X=197.805 $Y=195.2
Rf1366	VDDA#371	VDDA#373	1.209742	$MET1	$L=5.6725e-06
+ $W=3.2e-07	$X=197.805 $Y=202.756
Rf1371	VDDA	VDDA#379	1.210889	$MET1	$L=5.04225e-06
+ $W=3.2e-07	$X=197.805 $Y=175.18
Rf1372	VDDA#379	VDDA#381	1.209742	$MET1	$L=5.6725e-06
+ $W=3.2e-07	$X=197.805 $Y=182.736
Rf1390	OUT1	OUT1#58	1.751173	$MET1	$L=7.27775e-06
+ $W=3.2e-07	$X=199.79 $Y=147.3295
Rf1391	OUT1#58	OUT1#60	1.209742	$MET1	$L=5.6725e-06
+ $W=3.2e-07	$X=199.79 $Y=157.121
Rf1394	net8#25	net8#88	1.784860	$MET1	$L=7.41775e-06
+ $W=3.2e-07	$X=200.345 $Y=192.8245
Rf1395	net8#88	net8#90	1.209742	$MET1	$L=5.6725e-06
+ $W=3.2e-07	$X=200.345 $Y=202.756
Rf1398	net1#7	net1#40	2.641485	$MET1	$L=1.09777e-05
+ $W=3.2e-07	$X=200.345 $Y=169.2445
Rf1399	net1#40	net1#42	1.209742	$MET1	$L=5.6725e-06
+ $W=3.2e-07	$X=200.345 $Y=182.736
Rf1407	net2#19	net2#58	1.322860	$MET1	$L=5.49775e-06
+ $W=3.2e-07	$X=201.33 $Y=149.1095
Rf1408	net2#58	net2#60	1.209742	$MET1	$L=5.6725e-06
+ $W=3.2e-07	$X=201.33 $Y=157.121
Rf1413	VDDA	VDDA#387	1.210889	$MET1	$L=5.04225e-06
+ $W=3.2e-07	$X=201.045 $Y=195.2
Rf1414	VDDA#387	VDDA#389	1.209742	$MET1	$L=5.6725e-06
+ $W=3.2e-07	$X=201.045 $Y=202.756
Rf1419	VDDA	VDDA#395	1.210889	$MET1	$L=5.04225e-06
+ $W=3.2e-07	$X=201.045 $Y=175.18
Rf1420	VDDA#395	VDDA#397	1.209742	$MET1	$L=5.6725e-06
+ $W=3.2e-07	$X=201.045 $Y=182.736
Rf1428	OUT1	OUT1#64	1.751173	$MET1	$L=7.27775e-06
+ $W=3.2e-07	$X=202.87 $Y=147.3295
Rf1429	OUT1#64	OUT1#66	1.209742	$MET1	$L=5.6725e-06
+ $W=3.2e-07	$X=202.87 $Y=157.121
Rf1442	net2#7	net2#64	2.213172	$MET1	$L=9.19775e-06
+ $W=3.2e-07	$X=203.585 $Y=191.0445
Rf1443	net2#64	net2#66	1.209742	$MET1	$L=5.6725e-06
+ $W=3.2e-07	$X=203.585 $Y=202.756
Rf1446	net8#37	net8#94	1.784860	$MET1	$L=7.41775e-06
+ $W=3.2e-07	$X=203.585 $Y=172.8045
Rf1447	net8#94	net8#96	1.209742	$MET1	$L=5.6725e-06
+ $W=3.2e-07	$X=203.585 $Y=182.736
Rf1455	net2#19	net2#70	1.322860	$MET1	$L=5.49775e-06
+ $W=3.2e-07	$X=204.41 $Y=149.1095
Rf1456	net2#70	net2#72	1.209742	$MET1	$L=5.6725e-06
+ $W=3.2e-07	$X=204.41 $Y=157.121
Rf1461	VDDA	VDDA#403	1.210889	$MET1	$L=5.04225e-06
+ $W=3.2e-07	$X=204.285 $Y=195.2
Rf1462	VDDA#403	VDDA#405	1.209742	$MET1	$L=5.6725e-06
+ $W=3.2e-07	$X=204.285 $Y=202.756
Rf1467	VDDA	VDDA#411	1.210889	$MET1	$L=5.04225e-06
+ $W=3.2e-07	$X=204.285 $Y=175.18
Rf1468	VDDA#411	VDDA#413	1.209742	$MET1	$L=5.6725e-06
+ $W=3.2e-07	$X=204.285 $Y=182.736
Rf1481	net8#25	net8#100	1.784860	$MET1	$L=7.41775e-06
+ $W=3.2e-07	$X=206.825 $Y=192.8245
Rf1482	net8#100	net8#102	1.209742	$MET1	$L=5.6725e-06
+ $W=3.2e-07	$X=206.825 $Y=202.756
Rf1485	net2	net2#76	2.213172	$MET1	$L=9.19775e-06
+ $W=3.2e-07	$X=206.825 $Y=171.0245
Rf1486	net2#76	net2#78	1.209742	$MET1	$L=5.6725e-06
+ $W=3.2e-07	$X=206.825 $Y=182.736
Rf1491	VDDA	VDDA#419	1.210889	$MET1	$L=5.04225e-06
+ $W=3.2e-07	$X=207.525 $Y=195.2
Rf1492	VDDA#419	VDDA#421	1.209742	$MET1	$L=5.6725e-06
+ $W=3.2e-07	$X=207.525 $Y=202.756
Rf1497	VDDA	VDDA#427	1.210889	$MET1	$L=5.04225e-06
+ $W=3.2e-07	$X=207.525 $Y=175.18
Rf1498	VDDA#427	VDDA#429	1.209742	$MET1	$L=5.6725e-06
+ $W=3.2e-07	$X=207.525 $Y=182.736
Rf1511	net1	net1#46	2.641485	$MET1	$L=1.09777e-05
+ $W=3.2e-07	$X=210.065 $Y=189.2645
Rf1512	net1#46	net1#48	1.209742	$MET1	$L=5.6725e-06
+ $W=3.2e-07	$X=210.065 $Y=202.756
Rf1515	net2	net2#82	2.213172	$MET1	$L=9.19775e-06
+ $W=3.2e-07	$X=210.065 $Y=171.0245
Rf1516	net2#82	net2#84	1.209742	$MET1	$L=5.6725e-06
+ $W=3.2e-07	$X=210.065 $Y=182.736
Rf1521	VDDA	VDDA#435	1.210889	$MET1	$L=5.04225e-06
+ $W=3.2e-07	$X=210.765 $Y=195.2
Rf1522	VDDA#435	VDDA#437	1.209742	$MET1	$L=5.6725e-06
+ $W=3.2e-07	$X=210.765 $Y=202.756
Rf1527	VDDA	VDDA#443	1.210889	$MET1	$L=5.04225e-06
+ $W=3.2e-07	$X=210.765 $Y=175.18
Rf1528	VDDA#443	VDDA#445	1.209742	$MET1	$L=5.6725e-06
+ $W=3.2e-07	$X=210.765 $Y=182.736
Rf1541	net1#49	net1#52	1.322860	$MET1	$L=5.49775e-06
+ $W=3.2e-07	$X=212.92 $Y=149.1095
Rf1542	net1#52	net1#54	1.209742	$MET1	$L=5.6725e-06
+ $W=3.2e-07	$X=212.92 $Y=157.121
Rf1545	net8#25	net8#106	1.784860	$MET1	$L=7.41775e-06
+ $W=3.2e-07	$X=213.305 $Y=192.8245
Rf1546	net8#106	net8#108	1.209742	$MET1	$L=5.6725e-06
+ $W=3.2e-07	$X=213.305 $Y=202.756
Rf1549	net1#7	net1#58	2.641485	$MET1	$L=1.09777e-05
+ $W=3.2e-07	$X=213.305 $Y=169.2445
Rf1550	net1#58	net1#60	1.209742	$MET1	$L=5.6725e-06
+ $W=3.2e-07	$X=213.305 $Y=182.736
Rf1558	OUT2	OUT2#40	1.751173	$MET1	$L=7.27775e-06
+ $W=3.2e-07	$X=214.46 $Y=147.3295
Rf1559	OUT2#40	OUT2#42	1.209742	$MET1	$L=5.6725e-06
+ $W=3.2e-07	$X=214.46 $Y=157.121
Rf1564	VDDA	VDDA#451	1.210889	$MET1	$L=5.04225e-06
+ $W=3.2e-07	$X=214.005 $Y=195.2
Rf1565	VDDA#451	VDDA#453	1.209742	$MET1	$L=5.6725e-06
+ $W=3.2e-07	$X=214.005 $Y=202.756
Rf1570	VDDA	VDDA#459	1.210889	$MET1	$L=5.04225e-06
+ $W=3.2e-07	$X=214.005 $Y=175.18
Rf1571	VDDA#459	VDDA#461	1.209742	$MET1	$L=5.6725e-06
+ $W=3.2e-07	$X=214.005 $Y=182.736
Rf1589	net1#49	net1#64	1.322860	$MET1	$L=5.49775e-06
+ $W=3.2e-07	$X=216 $Y=149.1095
Rf1590	net1#64	net1#66	1.209742	$MET1	$L=5.6725e-06
+ $W=3.2e-07	$X=216 $Y=157.121
Rf1593	net2#7	net2#88	2.213172	$MET1	$L=9.19775e-06
+ $W=3.2e-07	$X=216.545 $Y=191.0445
Rf1594	net2#88	net2#90	1.209742	$MET1	$L=5.6725e-06
+ $W=3.2e-07	$X=216.545 $Y=202.756
Rf1597	net8#37	net8#112	1.784860	$MET1	$L=7.41775e-06
+ $W=3.2e-07	$X=216.545 $Y=172.8045
Rf1598	net8#112	net8#114	1.209742	$MET1	$L=5.6725e-06
+ $W=3.2e-07	$X=216.545 $Y=182.736
Rf1606	OUT2	OUT2#46	1.751173	$MET1	$L=7.27775e-06
+ $W=3.2e-07	$X=217.54 $Y=147.3295
Rf1607	OUT2#46	OUT2#48	1.209742	$MET1	$L=5.6725e-06
+ $W=3.2e-07	$X=217.54 $Y=157.121
Rf1612	VDDA	VDDA#467	1.210889	$MET1	$L=5.04225e-06
+ $W=3.2e-07	$X=217.245 $Y=195.2
Rf1613	VDDA#467	VDDA#469	1.209742	$MET1	$L=5.6725e-06
+ $W=3.2e-07	$X=217.245 $Y=202.756
Rf1618	VDDA	VDDA#475	1.210889	$MET1	$L=5.04225e-06
+ $W=3.2e-07	$X=217.245 $Y=175.18
Rf1619	VDDA#475	VDDA#477	1.209742	$MET1	$L=5.6725e-06
+ $W=3.2e-07	$X=217.245 $Y=182.736
Rf1637	net1#49	net1#70	1.322860	$MET1	$L=5.49775e-06
+ $W=3.2e-07	$X=219.08 $Y=149.1095
Rf1638	net1#70	net1#72	1.209742	$MET1	$L=5.6725e-06
+ $W=3.2e-07	$X=219.08 $Y=157.121
Rf1641	net1	net1#76	2.641485	$MET1	$L=1.09777e-05
+ $W=3.2e-07	$X=219.785 $Y=189.2645
Rf1642	net1#76	net1#78	1.209742	$MET1	$L=5.6725e-06
+ $W=3.2e-07	$X=219.785 $Y=202.756
Rf1645	net2	net2#94	2.213172	$MET1	$L=9.19775e-06
+ $W=3.2e-07	$X=219.785 $Y=171.0245
Rf1646	net2#94	net2#96	1.209742	$MET1	$L=5.6725e-06
+ $W=3.2e-07	$X=219.785 $Y=182.736
Rf1654	OUT2	OUT2#52	1.751173	$MET1	$L=7.27775e-06
+ $W=3.2e-07	$X=220.62 $Y=147.3295
Rf1655	OUT2#52	OUT2#54	1.209742	$MET1	$L=5.6725e-06
+ $W=3.2e-07	$X=220.62 $Y=157.121
Rf1660	VDDA	VDDA#483	1.210889	$MET1	$L=5.04225e-06
+ $W=3.2e-07	$X=220.485 $Y=175.18
Rf1661	VDDA#483	VDDA#485	1.209742	$MET1	$L=5.6725e-06
+ $W=3.2e-07	$X=220.485 $Y=182.736
Rf1669	net1#49	net1#82	1.322860	$MET1	$L=5.49775e-06
+ $W=3.2e-07	$X=222.16 $Y=149.1095
Rf1670	net1#82	net1#84	1.209742	$MET1	$L=5.6725e-06
+ $W=3.2e-07	$X=222.16 $Y=157.121
Rf1678	VDDA	VDDA#495	1.210889	$MET1	$L=5.04225e-06
+ $W=3.2e-07	$X=220.485 $Y=195.2
Rf1683	VDDA	VDDA#501	1.655467	$MET1	$L=6.89e-06
+ $W=3.2e-07	$X=221.28 $Y=193.185
Rf1685	VDDA#495	VDDA#503	1.209742	$MET1	$L=5.6725e-06
+ $W=3.2e-07	$X=220.485 $Y=202.756
Rf1694	VDDA	VDDA#508	1.356547	$MET1	$L=5.63775e-06
[...]
C1828	net1#84	GNDA	1.62609e-16	$X=222.159 $Y=159.6
C1829	VDDA#501	GNDA	1.98731e-16	$X=221.274 $Y=187.974
C1830	VDDA#503	GNDA	2.4968e-16	$X=220.484 $Y=205.235
C1831	net7#294	GNDA	8.52172e-17	$X=222.929 $Y=161.289
C1832	VDDA#510	GNDA	7.17513e-17	$X=223.024 $Y=205.235
C1833	VDDA#516	GNDA	7.15371e-17	$X=223.024 $Y=185.215
C1834	OUT2#60	GNDA	1.67639e-16	$X=223.699 $Y=159.6
C1835	net7#300	GNDA	8.54608e-17	$X=224.469 $Y=161.289
C1836	net1#90	GNDA	1.63015e-16	$X=225.239 $Y=159.6
C1837	net7#306	GNDA	8.74934e-17	$X=226.009 $Y=161.289
C1838	OUT2#66	GNDA	1.72119e-16	$X=226.779 $Y=159.6
C1839	net7#312	GNDA	1.12349e-16	$X=227.549 $Y=161.289
C1840	net1#96	GNDA	1.02106e-16	$X=228.319 $Y=159.6
C1841	VDDA#521	GNDA	1.59303e-16	$X=140.0585 $Y=183.9635
C1842	VDDA#520	GNDA	2.55779e-16	$X=134.839 $Y=198.809
C1843	VDDA#539	GNDA	1.648e-15	$X=213.145 $Y=144.158
C1844	VDDA#540	GNDA	1.75688e-15	$X=213.1455 $Y=163.8375
C1845	VDDA#529	GNDA	7.2528e-21	$X=159.902 $Y=39.045
C1846	VDDA#530	GNDA	7.43119e-18	$X=230.8795 $Y=39.0445
C1847	VDDA#533	GNDA	2.1862e-15	$X=212.9045 $Y=166.722
C1848	VDDA#534	GNDA	1.15616e-15	$X=212.936 $Y=210.451
C1849	COM#293	GNDA	1.03711e-16	$X=14.3895 $Y=145.214
C1850	COM#298	GNDA	1.03711e-16	$X=14.3895 $Y=116.544
C1851	COM#303	GNDA	1.12162e-16	$X=14.3195 $Y=132.869
C1852	COM#309	GNDA	1.12162e-16	$X=14.3195 $Y=128.889
C1853	COM#318	GNDA	2.09459e-17	$X=15.6595 $Y=133.329
C1854	COM#315	GNDA	7.9783e-17	$X=15.6595 $Y=145.357
C1855	COM#319	GNDA	2.09459e-17	$X=15.6595 $Y=128.41
C1856	COM#326	GNDA	2.14714e-17	$X=16.5195 $Y=133.329
C1857	COM#323	GNDA	7.9783e-17	$X=16.5195 $Y=145.357
C1858	COM#327	GNDA	2.25223e-17	$X=16.5195 $Y=128.41
C1859	COM#331	GNDA	2.40535e-16	$X=17.7895 $Y=145.214
C1860	COM#336	GNDA	2.40535e-16	$X=17.7895 $Y=116.544
C1861	VREF#99	GNDA	1.81107e-16	$X=17.7895 $Y=132.029
C1862	RES_BIAS#140	GNDA	1.76464e-16	$X=17.7895 $Y=129.729
C1863	net4#388	GNDA	2.28311e-17	$X=19.059 $Y=133.329
C1864	net4#385	GNDA	1.97557e-16	$X=19.0595 $Y=148.027
C1865	net6#248	GNDA	2.66015e-17	$X=19.0595 $Y=128.41
C1866	COM#344	GNDA	2.28311e-17	$X=19.9195 $Y=133.329
C1867	COM#341	GNDA	2.2056e-16	$X=19.9195 $Y=145.357
C1868	COM#345	GNDA	2.66015e-17	$X=19.9195 $Y=128.41
C1869	COM#349	GNDA	2.45293e-16	$X=21.1895 $Y=145.214
C1870	COM#354	GNDA	2.45293e-16	$X=21.1895 $Y=116.544
C1871	VREF#104	GNDA	3.92743e-16	$X=21.4995 $Y=130.119
C1872	RES_BIAS#145	GNDA	3.92744e-16	$X=20.8795 $Y=131.639
C1873	net6#255	GNDA	2.28311e-17	$X=22.4595 $Y=133.329
C1874	net6#252	GNDA	2.32542e-16	$X=22.4595 $Y=146.692
C1875	net4#389	GNDA	2.66015e-17	$X=22.4595 $Y=128.41
C1876	COM#362	GNDA	2.28311e-17	$X=23.3195 $Y=133.329
C1877	COM#359	GNDA	2.22362e-16	$X=23.3195 $Y=145.357
C1878	COM#363	GNDA	2.66015e-17	$X=23.3195 $Y=128.41
C1879	COM#367	GNDA	2.40535e-16	$X=24.5895 $Y=145.214
C1880	COM#372	GNDA	2.40535e-16	$X=24.5895 $Y=116.544
C1881	VREF#109	GNDA	1.82206e-16	$X=24.5895 $Y=132.029
C1882	RES_BIAS#150	GNDA	1.82206e-16	$X=24.5895 $Y=129.729
C1883	net4#396	GNDA	2.28311e-17	$X=25.8595 $Y=133.329
C1884	net4#393	GNDA	2.05325e-16	$X=25.8595 $Y=148.027
C1885	net6#256	GNDA	2.66015e-17	$X=25.8595 $Y=128.41
C1886	COM#380	GNDA	2.28311e-17	$X=26.7195 $Y=133.329
C1887	COM#377	GNDA	2.2056e-16	$X=26.7195 $Y=145.357
C1888	COM#381	GNDA	2.66015e-17	$X=26.7195 $Y=128.41
C1889	COM#385	GNDA	2.45293e-16	$X=27.9895 $Y=145.214
C1890	COM#390	GNDA	2.45293e-16	$X=27.9895 $Y=116.544
C1891	VREF#114	GNDA	3.92743e-16	$X=28.2995 $Y=130.119
C1892	RES_BIAS#155	GNDA	3.92743e-16	$X=27.6795 $Y=131.639
C1893	net6#263	GNDA	2.28311e-17	$X=29.2595 $Y=133.329
C1894	net6#260	GNDA	2.32542e-16	$X=29.2595 $Y=146.692
C1895	net4#397	GNDA	2.66015e-17	$X=29.2595 $Y=128.41
C1896	COM#398	GNDA	2.28311e-17	$X=30.1195 $Y=133.329
C1897	COM#395	GNDA	2.22362e-16	$X=30.1195 $Y=145.357
C1898	COM#399	GNDA	2.66015e-17	$X=30.1195 $Y=128.41
C1899	COM#403	GNDA	2.40535e-16	$X=31.3895 $Y=145.214
C1900	COM#408	GNDA	2.40535e-16	$X=31.3895 $Y=116.544
C1901	VREF#119	GNDA	1.82206e-16	$X=31.3895 $Y=132.029
C1902	RES_BIAS#160	GNDA	1.82206e-16	$X=31.3895 $Y=129.729
C1903	net4#404	GNDA	2.28311e-17	$X=32.6595 $Y=133.329
C1904	net4#401	GNDA	2.07125e-16	$X=32.6595 $Y=148.027
C1905	net6#264	GNDA	2.66015e-17	$X=32.6595 $Y=128.41
C1906	COM#416	GNDA	2.28311e-17	$X=33.5195 $Y=133.329
C1907	COM#413	GNDA	2.2236e-16	$X=33.5195 $Y=145.357
C1908	COM#417	GNDA	2.66015e-17	$X=33.5195 $Y=128.41
C1909	COM#421	GNDA	2.45293e-16	$X=34.7895 $Y=145.214
C1910	COM#426	GNDA	2.45293e-16	$X=34.7895 $Y=116.544
C1911	VREF#124	GNDA	3.92743e-16	$X=35.0995 $Y=130.119
C1912	RES_BIAS#165	GNDA	3.92743e-16	$X=34.4795 $Y=131.639
C1913	net6#271	GNDA	2.28311e-17	$X=36.0595 $Y=133.329
C1914	net6#268	GNDA	2.32542e-16	$X=36.0595 $Y=146.692
C1915	net4#405	GNDA	2.66015e-17	$X=36.0595 $Y=128.41
C1916	COM#434	GNDA	2.28311e-17	$X=36.9195 $Y=133.329
C1917	COM#431	GNDA	2.22362e-16	$X=36.9195 $Y=145.357
C1918	COM#435	GNDA	2.66015e-17	$X=36.9195 $Y=128.41
C1919	COM#439	GNDA	2.40535e-16	$X=38.1895 $Y=145.214
C1920	COM#444	GNDA	2.40535e-16	$X=38.1895 $Y=116.544
C1921	VREF#129	GNDA	1.82206e-16	$X=38.1895 $Y=132.029
C1922	RES_BIAS#170	GNDA	1.82206e-16	$X=38.1895 $Y=129.729
C1923	net4#412	GNDA	2.28311e-17	$X=39.4595 $Y=133.329
C1924	net4#409	GNDA	2.05325e-16	$X=39.4595 $Y=148.027
C1925	net6#272	GNDA	2.66015e-17	$X=39.4595 $Y=128.41
C1926	COM#452	GNDA	2.28311e-17	$X=40.3195 $Y=133.329
C1927	COM#449	GNDA	2.2056e-16	$X=40.3195 $Y=145.357
C1928	COM#453	GNDA	2.66015e-17	$X=40.3195 $Y=128.41
C1929	COM#457	GNDA	2.45293e-16	$X=41.5895 $Y=145.214
C1930	COM#462	GNDA	2.45293e-16	$X=41.5895 $Y=116.544
C1931	VREF#134	GNDA	3.92743e-16	$X=41.8995 $Y=130.119
C1932	RES_BIAS#175	GNDA	3.92743e-16	$X=41.2795 $Y=131.639
C1933	net6#279	GNDA	2.28311e-17	$X=42.8595 $Y=133.329
C1934	net6#276	GNDA	2.24927e-16	$X=42.8595 $Y=146.692
C1935	net4#413	GNDA	2.66015e-17	$X=42.8595 $Y=128.41
C1936	COM#470	GNDA	2.28311e-17	$X=43.7195 $Y=133.329
C1937	COM#467	GNDA	2.22362e-16	$X=43.7195 $Y=145.357
C1938	COM#471	GNDA	2.66015e-17	$X=43.7195 $Y=128.41
C1939	COM#475	GNDA	2.40535e-16	$X=44.9895 $Y=145.214
C1940	COM#480	GNDA	2.40535e-16	$X=44.9895 $Y=116.544
C1941	VREF#139	GNDA	1.82206e-16	$X=44.9895 $Y=132.029
C1942	RES_BIAS#180	GNDA	1.82206e-16	$X=44.9895 $Y=129.729
C1943	net4#420	GNDA	2.28311e-17	$X=46.2595 $Y=133.329
C1944	net4#417	GNDA	2.05325e-16	$X=46.2595 $Y=148.027
C1945	net6#280	GNDA	2.66015e-17	$X=46.2595 $Y=128.41
C1946	COM#488	GNDA	2.28311e-17	$X=47.1195 $Y=133.329
C1947	COM#485	GNDA	2.2056e-16	$X=47.1195 $Y=145.357
C1948	COM#489	GNDA	2.66015e-17	$X=47.1195 $Y=128.41
C1949	COM#493	GNDA	2.45293e-16	$X=48.3895 $Y=145.214
C1950	COM#498	GNDA	2.45293e-16	$X=48.3895 $Y=116.544
C1951	VREF#144	GNDA	3.92743e-16	$X=48.6995 $Y=130.119
C1952	RES_BIAS#185	GNDA	3.92743e-16	$X=48.0795 $Y=131.639
C1953	net6#287	GNDA	2.28311e-17	$X=49.6595 $Y=133.329
C1954	net6#284	GNDA	2.32542e-16	$X=49.6595 $Y=146.692
C1955	net4#421	GNDA	2.66015e-17	$X=49.6595 $Y=128.41
C1956	COM#506	GNDA	2.28311e-17	$X=50.5195 $Y=133.329
C1957	COM#503	GNDA	2.22362e-16	$X=50.5195 $Y=145.357
C1958	COM#507	GNDA	2.66015e-17	$X=50.5195 $Y=128.41
C1959	COM#511	GNDA	2.40535e-16	$X=51.7895 $Y=145.214
C1960	COM#516	GNDA	2.40535e-16	$X=51.7895 $Y=116.544
C1961	VREF#149	GNDA	1.82206e-16	$X=51.7895 $Y=132.029
C1962	RES_BIAS#190	GNDA	1.82206e-16	$X=51.7895 $Y=129.729
C1963	net4#428	GNDA	2.28311e-17	$X=53.0595 $Y=133.329
C1964	net4#425	GNDA	2.07125e-16	$X=53.0595 $Y=148.027
C1965	net6#288	GNDA	2.66015e-17	$X=53.0595 $Y=128.41
C1966	COM#524	GNDA	2.28311e-17	$X=53.9195 $Y=133.329
C1967	COM#521	GNDA	2.2236e-16	$X=53.9195 $Y=145.357
C1968	COM#525	GNDA	2.66015e-17	$X=53.9195 $Y=128.41
C1969	COM#529	GNDA	2.45293e-16	$X=55.1895 $Y=145.214
C1970	COM#534	GNDA	2.45293e-16	$X=55.1895 $Y=116.544
C1971	VREF#154	GNDA	3.92743e-16	$X=55.4995 $Y=130.119
C1972	RES_BIAS#195	GNDA	3.92743e-16	$X=54.8795 $Y=131.639
C1973	net6#295	GNDA	2.28311e-17	$X=56.4595 $Y=133.329
C1974	net6#292	GNDA	2.32542e-16	$X=56.4595 $Y=146.692
C1975	net4#429	GNDA	2.66015e-17	$X=56.4595 $Y=128.41
C1976	COM#542	GNDA	2.28311e-17	$X=57.3195 $Y=133.329
C1977	COM#539	GNDA	2.22362e-16	$X=57.3195 $Y=145.357
C1978	COM#543	GNDA	2.66015e-17	$X=57.3195 $Y=128.41
C1979	COM#547	GNDA	2.40535e-16	$X=58.5895 $Y=145.214
C1980	COM#552	GNDA	2.40535e-16	$X=58.5895 $Y=116.544
C1981	VREF#159	GNDA	1.82206e-16	$X=58.5895 $Y=132.029
C1982	RES_BIAS#200	GNDA	1.82206e-16	$X=58.5895 $Y=129.729
C1983	net4#436	GNDA	2.28311e-17	$X=59.8595 $Y=133.329
C1984	net4#433	GNDA	1.97557e-16	$X=59.8595 $Y=148.027
C1985	net6#296	GNDA	2.66015e-17	$X=59.8595 $Y=128.41
C1986	COM#560	GNDA	2.28311e-17	$X=60.7195 $Y=133.329
C1987	COM#557	GNDA	2.2056e-16	$X=60.7195 $Y=145.357
C1988	COM#561	GNDA	2.66015e-17	$X=60.7195 $Y=128.41
C1989	COM#565	GNDA	2.45293e-16	$X=61.9895 $Y=145.214
C1990	COM#570	GNDA	2.45293e-16	$X=61.9895 $Y=116.544
C1991	VREF#164	GNDA	4.16034e-16	$X=62.2995 $Y=130.119
C1992	RES_BIAS#205	GNDA	3.93269e-16	$X=61.6795 $Y=131.639
C1993	net6#303	GNDA	2.32722e-17	$X=63.2595 $Y=133.329
C1994	net6#300	GNDA	2.36145e-16	$X=63.2595 $Y=146.692
C1995	net4#437	GNDA	2.71883e-17	$X=63.2595 $Y=128.41
C1996	COM#584	GNDA	2.23057e-17	$X=64.1195 $Y=133.329
C1997	COM#581	GNDA	2.22362e-16	$X=64.1195 $Y=145.357
C1998	COM#585	GNDA	2.50252e-17	$X=64.1195 $Y=128.41
C1999	COM#589	GNDA	1.03711e-16	$X=65.3895 $Y=145.214
C2000	COM#594	GNDA	1.03711e-16	$X=65.3895 $Y=116.544
C2001	COM#602	GNDA	1.12181e-16	$X=65.4595 $Y=132.869
C2002	COM#599	GNDA	1.24412e-16	$X=66.6595 $Y=145.357
C2003	COM#605	GNDA	1.12161e-16	$X=65.4595 $Y=128.889
C2004	net123#131	GNDA	3.68008e-15	$X=56.315 $Y=41.2695
C2005	net123#135	GNDA	3.07468e-15	$X=33.063 $Y=41.2695
C2006	net7#320	GNDA	6.79597e-15	$X=25.7835 $Y=27.85
C2007	net7#318	GNDA	2.52409e-14	$X=60.486 $Y=28.5725
C2008	net123#137	GNDA	3.11481e-15	$X=59.4355 $Y=25.2895
C2009	net7#324	GNDA	7.57913e-15	$X=27.426 $Y=11.7605
C2010	net7#323	GNDA	2.86504e-15	$X=47.36 $Y=11.7595
C2011	net123#146	GNDA	3.57782e-15	$X=57.7005 $Y=9.2
C2012	net123#147	GNDA	3.9553e-15	$X=36.701 $Y=9.2005
C2013	net5#58	GNDA	1.8802e-14	$X=67.273 $Y=25.276
C2014	net5#69	GNDA	4.26726e-15	$X=21.185 $Y=10.48
C2015	net5#66	GNDA	1.15323e-14	$X=35.062 $Y=26.5705
C2016	net5#62	GNDA	3.19333e-15	$X=35.61 $Y=10.48
C2017	net6#304	GNDA	2.16333e-17	$X=118.1595 $Y=201.5575
C2018	net6#305	GNDA	2.09786e-17	$X=104.4445 $Y=201.559
C2019	net6#306	GNDA	6.91568e-17	$X=95.6895 $Y=201.5585
C2020	net6#307	GNDA	2.09786e-17	$X=84.45 $Y=201.5585
C2021	net6#308	GNDA	4.19572e-17	$X=73.21 $Y=201.5585
C2022	net6#309	GNDA	2.09786e-17	$X=61.97 $Y=201.5585
C2023	net6#310	GNDA	4.19572e-17	$X=50.73 $Y=201.5585
C2024	net6#311	GNDA	4.79545e-17	$X=39.49 $Y=201.5585
C2025	net6#312	GNDA	6.29358e-17	$X=25.7955 $Y=201.558
C2026	VDDA#546	GNDA	8.56903e-16	$X=67.872 $Y=186.793
C2027	net6#314	GNDA	4.29969e-16	$X=73.3635 $Y=184.3565
C2028	net4#441	GNDA	6.29508e-17	$X=25.488 $Y=168.4725
C2029	net4#442	GNDA	4.07426e-17	$X=50.2645 $Y=168.477
C2030	net4#443	GNDA	3.19659e-17	$X=67.2395 $Y=168.475
C2031	net4#444	GNDA	3.19659e-17	$X=89.719 $Y=168.475
C2032	net4#445	GNDA	5.2555e-15	$X=133.0145 $Y=180.0245
C2033	net6#328	GNDA	3.06933e-17	$X=114.914 $Y=166.6945
C2034	net6#329	GNDA	4.23398e-17	$X=95.405 $Y=166.6975
C2035	net6#330	GNDA	3.76759e-17	$X=78.4805 $Y=166.6955
C2036	net6#331	GNDA	2.85187e-17	$X=56.001 $Y=166.6955
C2037	net6#332	GNDA	4.32266e-17	$X=32.6895 $Y=166.695
C2038	net102#43	GNDA	1.03865e-15	$X=140.074 $Y=201.683
C2039	net7#325	GNDA	1.1464e-15	$X=150.269 $Y=201.683
C2040	OUT2#71	GNDA	5.16159e-15	$X=102.052 $Y=111.835
C2041	OUT2#70	GNDA	6.71151e-15	$X=136.7975 $Y=111.8345
C2042	OUT2#69	GNDA	4.93025e-15	$X=154.9215 $Y=134.4785
C2043	OUT2#67	GNDA	4.32267e-15	$X=187.4385 $Y=141.5295
C2044	OUT1#75	GNDA	3.74383e-15	$X=130.2925 $Y=108.2565
C2045	OUT1#74	GNDA	4.26933e-15	$X=147.592 $Y=108.2565
C2046	OUT1#73	GNDA	5.54804e-15	$X=167.218 $Y=139.1595
C2047	net7#334	GNDA	1.4902e-15	$X=219.111 $Y=161.878
C2048	net7#345	GNDA	1.42421e-15	$X=196.721 $Y=161.878
C2049	net7#355	GNDA	1.63388e-15	$X=171.3645 $Y=161.8775
C2050	net4#467	GNDA	7.97866e-16	$X=150.722 $Y=183.2885
C2051	net4#465	GNDA	1.25782e-15	$X=158.2665 $Y=187.3835
C2052	net4#464	GNDA	5.39591e-16	$X=159.509 $Y=202.469
C2053	net4#495	GNDA	1.08097e-16	$X=19.867 $Y=186.1535
C2054	net4#447	GNDA	2.75635e-16	$X=224.7645 $Y=207.404
C2055	net4#448	GNDA	7.13447e-16	$X=191.872 $Y=207.402
C2056	net4#471	GNDA	1.63311e-16	$X=101.967 $Y=186.154
C2057	net4#472	GNDA	9.2913e-17	$X=78.4805 $Y=186.1545
C2058	net4#473	GNDA	4.40701e-17	$X=56.001 $Y=186.1545
C2059	net4#474	GNDA	2.2035e-17	$X=39.0255 $Y=186.157
C2060	net4#475	GNDA	7.93107e-15	$X=197.211 $Y=187.3815
C2061	BIAS#1	GNDA	5.33658e-16	$X=18.5455 $Y=58.0915
C2062	VDDA#1	GNDA	1.47206e-16	$X=16.7755 $Y=199.964
C2063	VDDA#5	GNDA	8.44249e-17	$X=17.014 $Y=182.6545
C2064	BIAS#4	GNDA	3.52613e-16	$X=21.0855 $Y=58.0915
C2065	BIAS#10	GNDA	3.52613e-16	$X=26.1655 $Y=58.0915
C2066	net123#4	GNDA	1.04937e-15	$X=26.722 $Y=17.758
C2067	BIAS#13	GNDA	3.52613e-16	$X=28.7055 $Y=58.0915
C2068	BIAS#16	GNDA	3.52613e-16	$X=31.2455 $Y=58.0915
C2069	net6#5	GNDA	1.12407e-16	$X=28.2535 $Y=182.916
C2070	BIAS#19	GNDA	3.52613e-16	$X=33.7855 $Y=58.0915
C2071	net123#7	GNDA	9.95752e-16	$X=32.962 $Y=33.8475
C2072	net123#10	GNDA	7.73994e-16	$X=32.962 $Y=17.758
C2073	BIAS#22	GNDA	4.54335e-16	$X=36.325 $Y=58.0915
C2074	net123#13	GNDA	7.76841e-16	$X=39.2015 $Y=33.8475
C2075	net123#16	GNDA	9.95752e-16	$X=39.2015 $Y=17.758
C2076	BIAS#25	GNDA	6.61038e-16	$X=43.48 $Y=57.8715
C2077	net6#9	GNDA	6.00308e-17	$X=39.4925 $Y=200.1675
C2078	net6#13	GNDA	1.20705e-16	$X=39.493 $Y=182.916
C2079	BIAS#28	GNDA	5.49287e-16	$X=46.02 $Y=57.8715
C2080	net123#19	GNDA	1.00854e-15	$X=45.4415 $Y=33.8475
C2081	net123#22	GNDA	7.73994e-16	$X=45.4415 $Y=17.758
C2082	BIAS#31	GNDA	5.49287e-16	$X=48.56 $Y=57.8715
C2083	BIAS#34	GNDA	5.49287e-16	$X=51.1 $Y=57.8715
C2084	net123#25	GNDA	1.01105e-15	$X=51.681 $Y=17.758
C2085	BIAS#37	GNDA	5.49287e-16	$X=53.64 $Y=57.8715
C2086	net6#17	GNDA	1.18571e-16	$X=50.732 $Y=200.1675
C2087	net6#21	GNDA	5.5406e-17	$X=50.732 $Y=182.916
C2088	BIAS#40	GNDA	5.49287e-16	$X=56.18 $Y=57.8715
C2089	BIAS#43	GNDA	5.46549e-16	$X=58.72 $Y=57.8715
C2090	BIAS#46	GNDA	7.08626e-16	$X=61.26 $Y=57.8715
C2091	net6#25	GNDA	5.32713e-17	$X=61.9715 $Y=200.1675
C2092	net6#29	GNDA	1.20705e-16	$X=61.9715 $Y=182.916
C2093	net6#33	GNDA	1.18571e-16	$X=73.2105 $Y=200.1675
C2094	net6#37	GNDA	1.04249e-16	$X=73.2105 $Y=182.916
C2095	net6#41	GNDA	5.32713e-17	$X=84.45 $Y=200.1675
C2096	net6#45	GNDA	1.20705e-16	$X=84.45 $Y=182.916
C2097	net6#49	GNDA	1.20104e-16	$X=95.689 $Y=200.1675
C2098	net6#53	GNDA	1.04249e-16	$X=95.689 $Y=182.916
C2099	net6#57	GNDA	7.23884e-17	$X=106.9285 $Y=200.1675
C2100	net6#61	GNDA	1.88665e-16	$X=106.9285 $Y=182.916
C2101	VDDA#9	GNDA	1.64941e-16	$X=117.9415 $Y=199.964
C2102	VDDA#13	GNDA	1.70513e-16	$X=118.168 $Y=182.6545
C2103	net102#4	GNDA	4.22674e-16	$X=141.5985 $Y=193.7995
C2104	net7#4	GNDA	4.5808e-16	$X=151.1585 $Y=193.7995
C2105	net7#7	GNDA	4.85228e-16	$X=162.8385 $Y=153.996
C2106	net7#10	GNDA	4.23904e-16	$X=164.3785 $Y=153.996
C2107	net7#13	GNDA	4.20742e-16	$X=165.9185 $Y=153.996
C2108	VDDA#17	GNDA	4.7952e-17	$X=166.673 $Y=199.6295
C2109	VDDA#20	GNDA	4.7952e-17	$X=166.673 $Y=179.6095
C2110	net7#16	GNDA	4.20742e-16	$X=167.4585 $Y=153.996
C2111	net7#19	GNDA	4.20742e-16	$X=168.9985 $Y=153.996
C2112	net4#4	GNDA	2.45266e-16	$X=169.913 $Y=179.6095
C2113	net7#22	GNDA	4.20742e-16	$X=170.5385 $Y=153.996
C2114	net7#25	GNDA	4.20742e-16	$X=172.0785 $Y=153.996
C2115	net7#28	GNDA	4.20742e-16	$X=173.6185 $Y=153.996
C2116	net4#7	GNDA	2.67955e-16	$X=173.153 $Y=199.6295
C2117	net4#10	GNDA	2.67955e-16	$X=173.153 $Y=179.6095
C2118	net7#31	GNDA	4.20742e-16	$X=175.1585 $Y=153.996
C2119	net7#34	GNDA	4.20742e-16	$X=176.6985 $Y=153.996
C2120	net4#13	GNDA	2.67955e-16	$X=176.393 $Y=199.6295
C2121	net4#16	GNDA	2.67955e-16	$X=176.393 $Y=179.6095
C2122	net7#37	GNDA	4.23904e-16	$X=178.2385 $Y=153.996
C2123	net7#40	GNDA	4.65781e-16	$X=179.7785 $Y=153.996
C2124	net4#19	GNDA	2.67955e-16	$X=179.633 $Y=199.6295
C2125	net4#22	GNDA	2.67955e-16	$X=179.633 $Y=179.6095
C2126	net4#31	GNDA	2.67955e-16	$X=186.113 $Y=199.6295
C2127	net4#34	GNDA	2.67955e-16	$X=186.113 $Y=179.6095
C2128	net7#43	GNDA	4.65781e-16	$X=189.7785 $Y=153.996
C2129	net4#37	GNDA	2.67955e-16	$X=189.3525 $Y=199.6295
C2130	net4#40	GNDA	2.67955e-16	$X=189.3525 $Y=179.6095
C2131	net7#46	GNDA	4.23904e-16	$X=191.3185 $Y=153.996
C2132	net7#49	GNDA	4.20742e-16	$X=192.8585 $Y=153.996
C2133	net4#43	GNDA	2.67955e-16	$X=192.5925 $Y=199.6295
C2134	net4#46	GNDA	2.67955e-16	$X=192.5925 $Y=179.6095
C2135	net7#55	GNDA	4.20884e-16	$X=195.9385 $Y=153.996
C2136	net4#49	GNDA	2.67955e-16	$X=195.8325 $Y=199.6295
C2137	net4#52	GNDA	2.67955e-16	$X=195.8325 $Y=179.6095
C2138	net7#58	GNDA	4.20785e-16	$X=197.4785 $Y=153.996
C2139	net7#61	GNDA	4.20742e-16	$X=199.0185 $Y=153.996
C2140	net4#55	GNDA	2.67955e-16	$X=199.0725 $Y=199.6295
C2141	net4#58	GNDA	2.67955e-16	$X=199.0725 $Y=179.6095
C2142	net7#64	GNDA	4.20742e-16	$X=200.5585 $Y=153.996
C2143	net7#67	GNDA	4.23904e-16	$X=202.0985 $Y=153.996
C2144	net4#61	GNDA	2.67955e-16	$X=202.3125 $Y=199.6295
C2145	net4#64	GNDA	2.67955e-16	$X=202.3125 $Y=179.6095
C2146	net7#70	GNDA	4.76154e-16	$X=203.6385 $Y=153.996
C2147	net4#73	GNDA	2.67955e-16	$X=208.7925 $Y=199.6295
C2148	net4#76	GNDA	2.67955e-16	$X=208.7925 $Y=179.6095
C2149	net4#79	GNDA	2.67955e-16	$X=212.0325 $Y=199.6295
C2150	net4#82	GNDA	2.67955e-16	$X=212.0325 $Y=179.6095
C2151	net7#73	GNDA	4.65781e-16	$X=213.6885 $Y=153.996
C2152	net7#76	GNDA	4.23904e-16	$X=215.2285 $Y=153.996
C2153	net4#85	GNDA	2.67955e-16	$X=215.2725 $Y=199.6295
C2154	net4#88	GNDA	2.67955e-16	$X=215.2725 $Y=179.6095
C2155	net7#82	GNDA	4.20742e-16	$X=218.3085 $Y=153.996
C2156	net4#91	GNDA	2.80586e-16	$X=218.512 $Y=199.6295
C2157	net4#94	GNDA	2.80586e-16	$X=218.512 $Y=179.6095
C2158	net7#85	GNDA	4.20742e-16	$X=219.848 $Y=153.996
C2159	net7#88	GNDA	4.20742e-16	$X=221.388 $Y=153.996
C2160	VDDA#23	GNDA	4.7952e-17	$X=221.752 $Y=199.6295
C2161	VDDA#26	GNDA	4.7952e-17	$X=221.752 $Y=179.6095
C2162	net7#91	GNDA	4.20742e-16	$X=222.928 $Y=153.996
C2163	net7#94	GNDA	4.20742e-16	$X=224.468 $Y=153.996
C2164	net7#97	GNDA	4.37596e-16	$X=226.008 $Y=153.996
C2165	net7#100	GNDA	4.8522e-16	$X=227.548 $Y=153.996
C2166	net4#496	GNDA	9.38767e-15	$X=52.028 $Y=149.062
C2167	VREF#169	GNDA	1.98048e-15	$X=67.67 $Y=131.269
C2168	VREF#170	GNDA	8.28919e-15	$X=37.382 $Y=131.267
C2169	net4#506	GNDA	1.18093e-14	$X=40.5265 $Y=119.186
C2170	net6#350	GNDA	7.38895e-15	$X=39.273 $Y=118
C2171	RES_BIAS#239	GNDA	1.45307e-15	$X=80.0945 $Y=134.9315
C2172	RES_BIAS#225	GNDA	9.92809e-15	$X=41.6095 $Y=130.487
C2173	net7#373	GNDA	6.20854e-15	$X=93.1675 $Y=105.2535
C2174	net7#374	GNDA	7.99092e-15	$X=132.4215 $Y=105.2535
C2175	net7#375	GNDA	4.89283e-15	$X=152.8005 $Y=153.8535
C2176	net1#120	GNDA	4.22783e-15	$X=229.35 $Y=199.26
C2177	net3#15	GNDA	4.0758e-15	$X=218.987 $Y=23.207
C2178	net3#14	GNDA	7.56462e-16	$X=229.173 $Y=11.394
C2179	net3#16	GNDA	3.87418e-15	$X=218.988 $Y=54.743
C2180	net3#17	GNDA	3.82453e-15	$X=218.988 $Y=86.2785
C2181	net3#18	GNDA	4.02399e-15	$X=218.9885 $Y=117.815
C2182	net3#19	GNDA	1.55374e-15	$X=220.024 $Y=135.502
C2183	net3#20	GNDA	5.63421e-15	$X=193.577 $Y=131.359
C2184	net3#33	GNDA	3.38985e-15	$X=184.0595 $Y=117.815
C2185	net3#34	GNDA	2.70996e-15	$X=184.059 $Y=86.2785
C2186	net3#35	GNDA	2.75964e-15	$X=184.059 $Y=54.743
C2187	net3#36	GNDA	2.91625e-15	$X=184.058 $Y=23.207
C2188	net3#37	GNDA	5.65335e-16	$X=193.5835 $Y=11.3945
C2189	net3#21	GNDA	3.59785e-15	$X=125.305 $Y=135.4995
C2190	net3#22	GNDA	1.20098e-15	$X=97.108 $Y=119.323
C2191	net4#726	GNDA	2.70163e-15	$X=219.5155 $Y=23.2785
C2192	net4#725	GNDA	3.01061e-15	$X=219.5155 $Y=54.743
C2193	net4#724	GNDA	3.00317e-15	$X=219.5155 $Y=86.2825
C2194	net4#722	GNDA	4.50809e-15	$X=219.511 $Y=118.383
C2195	net4#717	GNDA	4.36664e-15	$X=185.5655 $Y=86.282
C2196	net4#718	GNDA	4.37744e-15	$X=185.5655 $Y=54.743
C2197	net4#719	GNDA	4.09266e-15	$X=185.5655 $Y=23.2785
C2198	net4#634	GNDA	3.16589e-15	$X=154.6165 $Y=145.6945
C2199	net4#539	GNDA	7.74323e-15	$X=185.5605 $Y=118.3815
*
*
.ENDS ref_bias
*
