*
*
*
*                       LINUX           Wed Aug 14 07:52:20 2024
*
*
*
*  PROGRAM  advgen
*
*  Name           : advgen - Quantus - (64-bit)
*  Version        : 23.1.0-p075
*  Build Date     : Tue Sep 26 09:11:43 PDT 2023
*
*  HSPICE LIBRARY
*
* GLOBAL_TEMPERATURE 27
*  OPERATING_TEMPERATURE 27
*  QRC_TECH_DIR /home/saul/pkg/xfab/XKIT/xh018/cadence/v9_0/QRC_pvs/v9_0_1/XH018_1143/QRC-Typ 
*
*!LENGTH_UNITS METERS
*
*
*
*
*       SUBCIRCUIT DEFINITIONS
*
.SUBCKT MOSVC3 G NW SB
.ENDS
*
.SUBCKT NE3I_6 D G S B NW SB
.ENDS
*
.SUBCKT nedia D G S SB
.ENDS
*

*
.SUBCKT pulse_generator BIAS1 BIAS2 CUR_OUT D<0> D<1> D<2> D<3> D<4> D<5> ENABLE
+ EXT_FB_RES GNDA GNDHV PULSE_ACTIVE VDD3A VDDHV VREF VSUBHV
*
*
*  caps2d version: 10
*
*       SUBCIRCUIT CALLS
*
XXC1@1 VDD3A#330 GNDA GNDA MOSVC3
+ w=2e-05 l=2e-05 model=mosvc3
XXC1@3 VDD3A#325 GNDA GNDA MOSVC3
+ w=2e-05 l=2e-05 model=mosvc3
XXC0@1 VDD3A#320 GNDA GNDA MOSVC3
+ w=2e-05 l=2e-05 model=mosvc3
XXC1@2 VDD3A#315 GNDA GNDA MOSVC3
+ w=2e-05 l=2e-05 model=mosvc3
XXC0@3 VDD3A#298 GNDA GNDA MOSVC3
+ w=2e-05 l=2e-05 model=mosvc3
XXC1 VDD3A#281 GNDA GNDA MOSVC3
+ w=2e-05 l=2e-05 model=mosvc3
XXC1@5 VDD3A#276 GNDA GNDA MOSVC3
+ w=2e-05 l=2e-05 model=mosvc3
XXC1@4 VDD3A#259 GNDA GNDA MOSVC3
+ w=2e-05 l=2e-05 model=mosvc3
XXC0 VDD3A#11 GNDA GNDA MOSVC3
+ w=2.5e-05 l=2e-05 model=mosvc3
XXC0@2 VDD3A#20 GNDA GNDA MOSVC3
+ w=2.5e-05 l=2e-05 model=mosvc3
XXC1@7 VDD3A#1 GNDA GNDA MOSVC3
+ w=2.5e-05 l=2e-05 model=mosvc3
XXC1@6 VDD3A#10 GNDA GNDA MOSVC3
+ w=2.5e-05 l=2e-05 model=mosvc3
XXI1/XC0@1 VDD3A#269 GNDA GNDA MOSVC3
+ w=2e-05 l=3e-05 model=mosvc3
XXI1/XC0@2 VDD3A#263 GNDA GNDA MOSVC3
+ w=2e-05 l=3e-05 model=mosvc3
XXI1/XC0 VDD3A#291 GNDA GNDA MOSVC3
+ w=2e-05 l=3e-05 model=mosvc3
XXI1/XC0@3 VDD3A#285 GNDA GNDA MOSVC3
+ w=2e-05 l=3e-05 model=mosvc3
XXI1/MM0 CUR_OUT XI1/VA#15 EXT_FB_RES VSUBHV nedia
+ w=0.0001 l=1.25e-06 adio=1.01941e-09 pdio=4.39938e-05 extlay=1
XXI1/MM0@3 CUR_OUT XI1/VA#29 EXT_FB_RES VSUBHV nedia
+ w=0.0001 l=1.25e-06 adio=1.01941e-09 pdio=4.39938e-05 extlay=1
XXI1/MM0@2 CUR_OUT XI1/VA#43 EXT_FB_RES VSUBHV nedia
+ w=0.0001 l=1.25e-06 adio=1.01941e-09 pdio=4.39938e-05 extlay=1
XXI1/MM0@4 CUR_OUT XI1/VA#57 EXT_FB_RES VSUBHV nedia
+ w=0.0001 l=1.25e-06 adio=1.01941e-09 pdio=4.39938e-05 extlay=1
XXI1/MM0@6 CUR_OUT XI1/VA#71 EXT_FB_RES VSUBHV nedia
+ w=0.0001 l=1.25e-06 adio=1.01941e-09 pdio=4.39938e-05 extlay=1
XXI1/MM0@5 CUR_OUT XI1/VA#85 EXT_FB_RES VSUBHV nedia
+ w=0.0001 l=1.25e-06 adio=1.01941e-09 pdio=4.39938e-05 extlay=1
XXI1/MM0@1 CUR_OUT XI1/VA#99 EXT_FB_RES VSUBHV nedia
+ w=0.0001 l=1.25e-06 adio=1.01941e-09 pdio=4.39938e-05 extlay=1
XXI1/MM0@7 CUR_OUT XI1/VA#113 EXT_FB_RES VSUBHV nedia
+ w=0.0001 l=1.25e-06 adio=1.01941e-09 pdio=4.39938e-05 extlay=1
XXI1/MM1 XI1/VA XI1/VB#15 GNDHV VSUBHV nedia
+ w=5e-05 l=1.25e-06 adio=1.08602e-09 pdio=0.00013535 extlay=1
XXI0/XM41@2 XI0/A#303 XI0/A#8 XI0/A#287 XI0/A VDD3A GNDA NE3I_6	L=2e-06
+ W=1e-05
+ AD=4.8e-12	AS=4.8e-12	PD=2.096e-05	PS=2.096e-05
+ NRD=0.0173	NRS=0.0173
XXI0/XM41 XI0/A#307 XI0/A#11 XI0/A#291 XI0/A VDD3A GNDA NE3I_6	L=2e-06
+ W=1e-05
+ AD=4.8e-12	AS=4.8e-12	PD=2.096e-05	PS=2.096e-05
+ NRD=0.0173	NRS=0.0173
XXI0/XM24@1 XI0/net12#200 XI0/net14#49 XI0/A#273 XI0/A VDD3A GNDA NE3I_6	L=2e-06	W=1e-05
+ AD=4.8e-12	AS=4.8e-12	PD=2.096e-05	PS=2.096e-05
+ NRD=0.0173	NRS=0.0173
XXI0/XM12@8 XI0/net7#383 VREF#47 XI0/A#277 XI0/A VDD3A GNDA NE3I_6	L=2e-06	W=1e-05
+ AD=4.8e-12	AS=4.8e-12	PD=2.096e-05	PS=2.096e-05
+ NRD=0.0173	NRS=0.0173
XXI0/XM12@11 XI0/net7#379 VREF#44 XI0/A#259 XI0/A VDD3A GNDA NE3I_6	L=2e-06	W=1e-05
+ AD=4.8e-12	AS=4.8e-12	PD=2.096e-05	PS=2.096e-05
+ NRD=0.0173	NRS=0.0173
XXI0/XM24@2 XI0/net12#196 XI0/net14#46 XI0/A#263 XI0/A VDD3A GNDA NE3I_6	L=2e-06	W=1e-05
+ AD=4.8e-12	AS=4.8e-12	PD=2.096e-05	PS=2.096e-05
+ NRD=0.0173	NRS=0.0173
XXI0/XM24@4 XI0/net12#177 XI0/net14#43 XI0/A#245 XI0/A VDD3A GNDA NE3I_6	L=2e-06	W=1e-05
+ AD=4.8e-12	AS=4.8e-12	PD=2.096e-05	PS=2.096e-05
+ NRD=0.0173	NRS=0.0173
XXI0/XM12@14 XI0/net7#369 VREF#41 XI0/A#249 XI0/A VDD3A GNDA NE3I_6	L=2e-06	W=1e-05
+ AD=4.8e-12	AS=4.8e-12	PD=2.096e-05	PS=2.096e-05
+ NRD=0.0173	NRS=0.0173
XXI0/XM12@9 XI0/net7#365 VREF#38 XI0/A#231 XI0/A VDD3A GNDA NE3I_6	L=2e-06	W=1e-05
+ AD=4.8e-12	AS=4.8e-12	PD=2.096e-05	PS=2.096e-05
+ NRD=0.0173	NRS=0.0173
XXI0/XM24@9 XI0/net12#173 XI0/net14#40 XI0/A#235 XI0/A VDD3A GNDA NE3I_6	L=2e-06	W=1e-05
+ AD=4.8e-12	AS=4.8e-12	PD=2.096e-05	PS=2.096e-05
+ NRD=0.0173	NRS=0.0173
XXI0/XM24@3 XI0/net12#169 XI0/net14#37 XI0/A#217 XI0/A VDD3A GNDA NE3I_6	L=2e-06	W=1e-05
+ AD=4.8e-12	AS=4.8e-12	PD=2.096e-05	PS=2.096e-05
+ NRD=0.0173	NRS=0.0173
XXI0/XM12@10 XI0/net7#361 VREF#35 XI0/A#221 XI0/A VDD3A GNDA NE3I_6	L=2e-06	W=1e-05
+ AD=4.8e-12	AS=4.8e-12	PD=2.096e-05	PS=2.096e-05
+ NRD=0.0173	NRS=0.0173
XXI0/XM12@12 XI0/net7#351 VREF#32 XI0/A#203 XI0/A VDD3A GNDA NE3I_6	L=2e-06	W=1e-05
+ AD=4.8e-12	AS=4.8e-12	PD=2.096e-05	PS=2.096e-05
+ NRD=0.0173	NRS=0.0173
XXI0/XM24@6 XI0/net12#150 XI0/net14#34 XI0/A#207 XI0/A VDD3A GNDA NE3I_6	L=2e-06	W=1e-05
+ AD=4.8e-12	AS=4.8e-12	PD=2.096e-05	PS=2.096e-05
+ NRD=0.0173	NRS=0.0173
XXI0/XM24 XI0/net12#146 XI0/net14#31 XI0/A#189 XI0/A VDD3A GNDA NE3I_6	L=2e-06	W=1e-05
+ AD=4.8e-12	AS=4.8e-12	PD=2.096e-05	PS=2.096e-05
+ NRD=0.0173	NRS=0.0173
XXI0/XM12@13 XI0/net7#347 VREF#29 XI0/A#193 XI0/A VDD3A GNDA NE3I_6	L=2e-06	W=1e-05
+ AD=4.8e-12	AS=4.8e-12	PD=2.096e-05	PS=2.096e-05
+ NRD=0.0173	NRS=0.0173
XXI0/XM12@7 XI0/net7#343 VREF#26 XI0/A#175 XI0/A VDD3A GNDA NE3I_6	L=2e-06	W=1e-05
+ AD=4.8e-12	AS=4.8e-12	PD=2.096e-05	PS=2.096e-05
+ NRD=0.0173	NRS=0.0173
XXI0/XM24@5 XI0/net12#142 XI0/net14#28 XI0/A#179 XI0/A VDD3A GNDA NE3I_6	L=2e-06	W=1e-05
+ AD=4.8e-12	AS=4.8e-12	PD=2.096e-05	PS=2.096e-05
+ NRD=0.0173	NRS=0.0173
XXI0/XM24@7 XI0/net12#123 XI0/net14#25 XI0/A#161 XI0/A VDD3A GNDA NE3I_6	L=2e-06	W=1e-05
+ AD=4.8e-12	AS=4.8e-12	PD=2.096e-05	PS=2.096e-05
+ NRD=0.0173	NRS=0.0173
XXI0/XM12@4 XI0/net7#333 VREF#23 XI0/A#165 XI0/A VDD3A GNDA NE3I_6	L=2e-06	W=1e-05
+ AD=4.8e-12	AS=4.8e-12	PD=2.096e-05	PS=2.096e-05
+ NRD=0.0173	NRS=0.0173
XXI0/XM12@3 XI0/net7#329 VREF#20 XI0/A#147 XI0/A VDD3A GNDA NE3I_6	L=2e-06	W=1e-05
+ AD=4.8e-12	AS=4.8e-12	PD=2.096e-05	PS=2.096e-05
+ NRD=0.0173	NRS=0.0173
XXI0/XM24@8 XI0/net12#119 XI0/net14#22 XI0/A#151 XI0/A VDD3A GNDA NE3I_6	L=2e-06	W=1e-05
+ AD=4.8e-12	AS=4.8e-12	PD=2.096e-05	PS=2.096e-05
+ NRD=0.0173	NRS=0.0173
XXI0/XM24@15 XI0/net12#115 XI0/net14#19 XI0/A#133 XI0/A VDD3A GNDA NE3I_6	L=2e-06	W=1e-05
+ AD=4.8e-12	AS=4.8e-12	PD=2.096e-05	PS=2.096e-05
+ NRD=0.0173	NRS=0.0173
XXI0/XM12@2 XI0/net7#325 VREF#17 XI0/A#137 XI0/A VDD3A GNDA NE3I_6	L=2e-06	W=1e-05
+ AD=4.8e-12	AS=4.8e-12	PD=2.096e-05	PS=2.096e-05
+ NRD=0.0173	NRS=0.0173
XXI0/XM12@1 XI0/net7#321 VREF#14 XI0/A#119 XI0/A VDD3A GNDA NE3I_6	L=2e-06	W=1e-05
+ AD=4.8e-12	AS=4.8e-12	PD=2.096e-05	PS=2.096e-05
+ NRD=0.0173	NRS=0.0173
XXI0/XM24@10 XI0/net12#111 XI0/net14#16 XI0/A#123 XI0/A VDD3A GNDA NE3I_6	L=2e-06	W=1e-05
+ AD=4.8e-12	AS=4.8e-12	PD=2.096e-05	PS=2.096e-05
+ NRD=0.0173	NRS=0.0173
XXI0/XM24@13 XI0/net12#92 XI0/net14#13 XI0/A#105 XI0/A VDD3A GNDA NE3I_6	L=2e-06	W=1e-05
+ AD=4.8e-12	AS=4.8e-12	PD=2.096e-05	PS=2.096e-05
+ NRD=0.0173	NRS=0.0173
XXI0/XM12@6 XI0/net7#311 VREF#11 XI0/A#109 XI0/A VDD3A GNDA NE3I_6	L=2e-06	W=1e-05
+ AD=4.8e-12	AS=4.8e-12	PD=2.096e-05	PS=2.096e-05
+ NRD=0.0173	NRS=0.0173
XXI0/XM12@5 XI0/net7#307 VREF#8 XI0/A#91 XI0/A VDD3A GNDA NE3I_6	L=2e-06	W=1e-05
+ AD=4.8e-12	AS=4.8e-12	PD=2.096e-05	PS=2.096e-05
+ NRD=0.0173	NRS=0.0173
XXI0/XM24@12 XI0/net12#88 XI0/net14#10 XI0/A#95 XI0/A VDD3A GNDA NE3I_6	L=2e-06	W=1e-05
+ AD=4.8e-12	AS=4.8e-12	PD=2.096e-05	PS=2.096e-05
+ NRD=0.0173	NRS=0.0173
XXI0/XM24@11 XI0/net12#84 XI0/net14#7 XI0/A#72 XI0/A VDD3A GNDA NE3I_6	L=2e-06	W=1e-05
+ AD=4.8e-12	AS=4.8e-12	PD=2.096e-05	PS=2.096e-05
+ NRD=0.0173	NRS=0.0173
XXI0/XM12 XI0/net7#303 VREF#5 XI0/A#76 XI0/A VDD3A GNDA NE3I_6	L=2e-06	W=1e-05
+ AD=4.8e-12	AS=4.8e-12	PD=2.096e-05	PS=2.096e-05
+ NRD=0.0173	NRS=0.0173
XXI0/XM12@15 XI0/net7#293 VREF#2 XI0/A#53 XI0/A VDD3A GNDA NE3I_6	L=2e-06	W=1e-05
+ AD=4.8e-12	AS=4.8e-12	PD=2.096e-05	PS=2.096e-05
+ NRD=0.0173	NRS=0.0173
XXI0/XM24@14 XI0/net12#65 XI0/net14#2 XI0/A#57 XI0/A VDD3A GNDA NE3I_6	L=2e-06	W=1e-05
+ AD=4.8e-12	AS=4.8e-12	PD=2.096e-05	PS=2.096e-05
+ NRD=0.0173	NRS=0.0173
XXI0/XM41@1 XI0/A#39 XI0/A#2 XI0/A#23 XI0/A VDD3A GNDA NE3I_6	L=2e-06
+ W=1e-05
+ AD=4.8e-12	AS=4.8e-12	PD=2.096e-05	PS=2.096e-05
+ NRD=0.0173	NRS=0.0173
XXI0/XM41@3 XI0/A#43 XI0/A#5 XI0/A#27 XI0/A VDD3A GNDA NE3I_6	L=2e-06
+ W=1e-05
+ AD=4.8e-12	AS=4.8e-12	PD=2.096e-05	PS=2.096e-05
+ NRD=0.0173	NRS=0.0173
*
*       TRANSISTOR CARDS
*
*
MXI1/MM2@1	XI1/net9#126	XI1/net7#8	GNDA#428	GNDA	ne3
+ L=1e-06	W=5e-06
+ AD=2.4e-12	AS=2.4e-12	PD=1.096e-05	PS=1.096e-05
+ NRD=0.0346	NRS=0.0346
MXI1/MM4	XI1/net7#122	XI1/net7#11	GNDA#434	GNDA	ne3
+ L=1e-06	W=5e-06
+ AD=2.4e-12	AS=2.4e-12	PD=1.096e-05	PS=1.096e-05
+ NRD=0.0346	NRS=0.0346
MXI1/MM4@1	XI1/net7#110	XI1/net7#2	GNDA#416	GNDA	ne3
+ L=1e-06	W=5e-06
+ AD=2.4e-12	AS=2.4e-12	PD=1.096e-05	PS=1.096e-05
+ NRD=0.0346	NRS=0.0346
MXI1/MM2	XI1/net9#120	XI1/net7#5	GNDA#422	GNDA	ne3
+ L=1e-06	W=5e-06
+ AD=2.4e-12	AS=2.4e-12	PD=1.096e-05	PS=1.096e-05
+ NRD=0.0346	NRS=0.0346
MXI1/MM27@3	GNDA#310	GNDA#30	GNDA#317	GNDA	ne3
+ L=1e-05	W=1e-05
+ AD=4.8e-12	AS=4.8e-12	PD=2.096e-05	PS=2.096e-05
+ NRD=0.0173	NRS=0.0173
MXI1/MM27@1	GNDA#331	GNDA#37	GNDA#324	GNDA	ne3
+ L=1e-05	W=1e-05
+ AD=4.8e-12	AS=4.8e-12	PD=2.096e-05	PS=2.096e-05
+ NRD=0.0173	NRS=0.0173
MXI1/MM21	XI1/net14#15	XI1/net12#17	GNDA#300	GNDA	ne3
+ L=1e-05	W=1e-05
+ AD=4.8e-12	AS=4.8e-12	PD=2.096e-05	PS=2.096e-05
+ NRD=0.0173	NRS=0.0173
MXI1/MM21@1	XI1/net14#20	XI1/net12#24	GNDA#305	GNDA	ne3
+ L=1e-05	W=1e-05
+ AD=4.8e-12	AS=4.8e-12	PD=2.096e-05	PS=2.096e-05
+ NRD=0.0173	NRS=0.0173
MXI1/MM14@1	XI1/net12#67	XI1/net12#9	GNDA#290	GNDA	ne3
+ L=1e-05	W=1e-05
+ AD=4.8e-12	AS=4.8e-12	PD=2.096e-05	PS=2.096e-05
+ NRD=0.0173	NRS=0.0173
MXI1/MM14	XI1/net12#72	XI1/net12#16	GNDA#295	GNDA	ne3
+ L=1e-05	W=1e-05
+ AD=4.8e-12	AS=4.8e-12	PD=2.096e-05	PS=2.096e-05
+ NRD=0.0173	NRS=0.0173
MXI1/MM13	XI1/net5#3	XI1/net12	GNDA#280	GNDA	ne3
+ L=1e-05	W=1e-05
+ AD=4.8e-12	AS=4.8e-12	PD=2.096e-05	PS=2.096e-05
+ NRD=0.0173	NRS=0.0173
MXI1/MM13@1	XI1/net5#8	XI1/net12#8	GNDA#285	GNDA	ne3
+ L=1e-05	W=1e-05
+ AD=4.8e-12	AS=4.8e-12	PD=2.096e-05	PS=2.096e-05
+ NRD=0.0173	NRS=0.0173
MXI1/MM27	GNDA#252	GNDA#22	GNDA#259	GNDA	ne3
+ L=1e-05	W=1e-05
+ AD=4.8e-12	AS=4.8e-12	PD=2.096e-05	PS=2.096e-05
+ NRD=0.0173	NRS=0.0173
MXI1/MM27@2	GNDA#273	GNDA#29	GNDA#266	GNDA	ne3
+ L=1e-05	W=1e-05
+ AD=4.8e-12	AS=4.8e-12	PD=2.096e-05	PS=2.096e-05
+ NRD=0.0173	NRS=0.0173
MXI1/MM19@1	XI1/net4#82	BIAS2#16	XI1/net5#14	GNDA	ne3
+ L=1e-05	W=1e-05
+ AD=2.7e-12	AS=4.8e-12	PD=1.054e-05	PS=2.096e-05
+ NRD=0.0173	NRS=0.0173
MXI1/MM19	XI1/net4#82	BIAS2#20	XI1/net5#20	GNDA	ne3
+ L=1e-05	W=1e-05
+ AD=2.7e-12	AS=4.8e-12	PD=1.054e-05	PS=2.096e-05
+ NRD=0.0173	NRS=0.0173
MXI1/MM22@1	XI1/net15#19	BIAS2#9	XI1/net14#4	GNDA	ne3
+ L=1e-05	W=1e-05
+ AD=2.7e-12	AS=4.8e-12	PD=1.054e-05	PS=2.096e-05
+ NRD=0.0173	NRS=0.0173
MXI1/MM22	XI1/net15#19	BIAS2#13	XI1/net14#10	GNDA	ne3
+ L=1e-05	W=1e-05
+ AD=2.7e-12	AS=4.8e-12	PD=1.054e-05	PS=2.096e-05
+ NRD=0.0173	NRS=0.0173
MXI1/MM18	BIAS2#25	BIAS2#2	XI1/net12#28	GNDA	ne3
+ L=1e-05	W=1e-05
+ AD=2.7e-12	AS=4.8e-12	PD=1.054e-05	PS=2.096e-05
+ NRD=0.0173	NRS=0.0173
MXI1/MM18@1	BIAS2#25	BIAS2#6	XI1/net12#44	GNDA	ne3
+ L=1e-05	W=1e-05
+ AD=2.7e-12	AS=4.8e-12	PD=1.054e-05	PS=2.096e-05
+ NRD=0.0173	NRS=0.0173
MXI1/MM32@3	XI1/net9#13	XI1/net13#2	GNDA#591	GNDA	ne3
+ L=3.5e-07	W=5e-06
+ AD=1.35e-12	AS=2.4e-12	PD=5.54e-06	PS=1.096e-05
+ NRD=0.0346	NRS=0.0346
MXI1/MM32	XI1/net9#13	XI1/net13#5	GNDA#589	GNDA	ne3
+ L=3.5e-07	W=5e-06
+ AD=1.35e-12	AS=1.35e-12	PD=5.54e-06	PS=5.54e-06
+ NRD=0.0346	NRS=0.0346
MXI1/MM32@2	XI1/net9#13	XI1/net13#9	GNDA#589	GNDA	ne3
+ L=3.5e-07	W=5e-06
+ AD=1.35e-12	AS=1.35e-12	PD=5.54e-06	PS=5.54e-06
+ NRD=0.0346	NRS=0.0346
MXI1/MM32@1	XI1/net9#13	XI1/net13#12	GNDA#587	GNDA	ne3
+ L=3.5e-07	W=5e-06
+ AD=1.35e-12	AS=2.4e-12	PD=5.54e-06	PS=1.096e-05
+ NRD=0.0346	NRS=0.0346
MXI1/MM24@3	XI1/net12#25	XI1/net16#2	GNDA#597	GNDA	ne3
+ L=3.5e-07	W=5e-06
+ AD=1.35e-12	AS=2.4e-12	PD=5.54e-06	PS=1.096e-05
+ NRD=0.0346	NRS=0.0346
MXI1/MM24	XI1/net12#25	XI1/net16#5	GNDA#595	GNDA	ne3
+ L=3.5e-07	W=5e-06
+ AD=1.35e-12	AS=1.35e-12	PD=5.54e-06	PS=5.54e-06
+ NRD=0.0346	NRS=0.0346
MXI1/MM24@2	XI1/net12#25	XI1/net16#9	GNDA#595	GNDA	ne3
+ L=3.5e-07	W=5e-06
+ AD=1.35e-12	AS=1.35e-12	PD=5.54e-06	PS=5.54e-06
+ NRD=0.0346	NRS=0.0346
MXI1/MM24@1	XI1/net12#25	XI1/net16#12	GNDA#593	GNDA	ne3
+ L=3.5e-07	W=5e-06
+ AD=1.35e-12	AS=2.4e-12	PD=5.54e-06	PS=1.096e-05
+ NRD=0.0346	NRS=0.0346
MXI1/MM6@3	XI1/VB#41	XI1/net9#2	GNDA#440	GNDA	ne3
+ L=5e-07	W=5e-06
+ AD=1.35e-12	AS=2.4e-12	PD=5.54e-06	PS=1.096e-05
+ NRD=0.0346	NRS=0.0346
MXI1/MM6@2	XI1/VB#41	XI1/net9#5	GNDA#444	GNDA	ne3
+ L=5e-07	W=5e-06
+ AD=1.35e-12	AS=1.35e-12	PD=5.54e-06	PS=5.54e-06
+ NRD=0.0346	NRS=0.0346
MXI1/MM6	XI1/VB#45	XI1/net9#8	GNDA#444	GNDA	ne3
+ L=5e-07	W=5e-06
+ AD=1.35e-12	AS=1.35e-12	PD=5.54e-06	PS=5.54e-06
+ NRD=0.0346	NRS=0.0346
MXI1/MM6@1	XI1/VB#45	XI1/net9#11	GNDA#448	GNDA	ne3
+ L=5e-07	W=5e-06
+ AD=1.35e-12	AS=2.4e-12	PD=5.54e-06	PS=1.096e-05
+ NRD=0.0346	NRS=0.0346
MXI1/MM34	XI1/net13#20	PULSE_ACTIVE#2	GNDA#599	GNDA	ne3
+ L=3.5e-07	W=2e-06
+ AD=9.6e-13	AS=9.6e-13	PD=4.96e-06	PS=4.96e-06
+ NRD=0.0865	NRS=0.0865
MXI1/MM25	XI1/net16#20	ENABLE#10	GNDA#601	GNDA	ne3
+ L=3.5e-07	W=2e-06
+ AD=9.6e-13	AS=9.6e-13	PD=4.96e-06	PS=4.96e-06
+ NRD=0.0865	NRS=0.0865
MXI0/MM34	XI0/EN#33	ENABLE#2	GNDA#711	GNDA	ne3
+ L=3.5e-07	W=2e-06
+ AD=9.6e-13	AS=9.6e-13	PD=4.96e-06	PS=4.96e-06
+ NRD=0.0865	NRS=0.0865
MXI0/MM32@1	VDAC#57	XI0/EN#15	GNDA#657	GNDA	ne3
+ L=3.5e-07	W=1e-05
+ AD=2.7e-12	AS=4.8e-12	PD=1.054e-05	PS=2.096e-05
+ NRD=0.0173	NRS=0.0173
MXI0/MM32@2	VDAC#57	XI0/EN#18	GNDA#690	GNDA	ne3
+ L=3.5e-07	W=1e-05
+ AD=2.7e-12	AS=2.7e-12	PD=1.054e-05	PS=1.054e-05
+ NRD=0.0173	NRS=0.0173
MXI0/MM32	VDAC#61	XI0/EN#22	GNDA#690	GNDA	ne3
+ L=3.5e-07	W=1e-05
+ AD=2.7e-12	AS=2.7e-12	PD=1.054e-05	PS=1.054e-05
+ NRD=0.0173	NRS=0.0173
MXI0/MM32@3	VDAC#61	XI0/EN#25	GNDA#14	GNDA	ne3
+ L=3.5e-07	W=1e-05
+ AD=2.7e-12	AS=4.8e-12	PD=1.054e-05	PS=2.096e-05
+ NRD=0.0173	NRS=0.0173
MXI0/MM33@2	XI0/net9#251	XI0/EN#2	GNDA#14	GNDA	ne3
+ L=3.5e-07	W=1e-05
+ AD=2.7e-12	AS=4.8e-12	PD=1.054e-05	PS=2.096e-05
+ NRD=0.0173	NRS=0.0173
MXI0/MM33@3	XI0/net9#251	XI0/EN#5	GNDA#491	GNDA	ne3
+ L=3.5e-07	W=1e-05
+ AD=2.7e-12	AS=2.7e-12	PD=1.054e-05	PS=1.054e-05
+ NRD=0.0173	NRS=0.0173
MXI0/MM33	XI0/net9#255	XI0/EN#9	GNDA#491	GNDA	ne3
+ L=3.5e-07	W=1e-05
+ AD=2.7e-12	AS=2.7e-12	PD=1.054e-05	PS=1.054e-05
+ NRD=0.0173	NRS=0.0173
MXI0/MM33@1	XI0/net9#255	XI0/EN#12	GNDA#519	GNDA	ne3
+ L=3.5e-07	W=1e-05
+ AD=2.7e-12	AS=4.8e-12	PD=1.054e-05	PS=2.096e-05
+ NRD=0.0173	NRS=0.0173
MXI0/MM40	GNDA#202	GNDA#8	GNDA#192	GNDA	ne3	L=2e-06
+ W=1e-05
+ AD=4.8e-12	AS=4.8e-12	PD=2.096e-05	PS=2.096e-05
+ NRD=0.0173	NRS=0.0173
MXI0/MM40@2	GNDA#209	GNDA#11	GNDA#197	GNDA	ne3
+ L=2e-06	W=1e-05
+ AD=4.8e-12	AS=4.8e-12	PD=2.096e-05	PS=2.096e-05
+ NRD=0.0173	NRS=0.0173
MXI0/MM26@3	XI0/net13#62	XI0/net9#68	GNDA#182	GNDA	ne3
+ L=2e-06	W=1e-05
+ AD=4.8e-12	AS=4.8e-12	PD=2.096e-05	PS=2.096e-05
+ NRD=0.0173	NRS=0.0173
MXI0/MM13@4	XI0/net9#248	XI0/net9#71	GNDA#187	GNDA	ne3
+ L=2e-06	W=1e-05
+ AD=4.8e-12	AS=4.8e-12	PD=2.096e-05	PS=2.096e-05
+ NRD=0.0173	NRS=0.0173
MXI0/MM25@7	XI0/net15#38	XI0/net9#62	GNDA#172	GNDA	ne3
+ L=2e-06	W=1e-05
+ AD=4.8e-12	AS=4.8e-12	PD=2.096e-05	PS=2.096e-05
+ NRD=0.0173	NRS=0.0173
MXI0/MM26@1	XI0/net13#51	XI0/net9#65	GNDA#177	GNDA	ne3
+ L=2e-06	W=1e-05
+ AD=4.8e-12	AS=4.8e-12	PD=2.096e-05	PS=2.096e-05
+ NRD=0.0173	NRS=0.0173
MXI0/MM13@7	XI0/net9#225	XI0/net9#56	GNDA#162	GNDA	ne3
+ L=2e-06	W=1e-05
+ AD=4.8e-12	AS=4.8e-12	PD=2.096e-05	PS=2.096e-05
+ NRD=0.0173	NRS=0.0173
MXI0/MM25@6	XI0/net15#33	XI0/net9#59	GNDA#167	GNDA	ne3
+ L=2e-06	W=1e-05
+ AD=4.8e-12	AS=4.8e-12	PD=2.096e-05	PS=2.096e-05
+ NRD=0.0173	NRS=0.0173
MXI0/MM26@7	XI0/net13#40	XI0/net9#50	GNDA#152	GNDA	ne3
+ L=2e-06	W=1e-05
+ AD=4.8e-12	AS=4.8e-12	PD=2.096e-05	PS=2.096e-05
+ NRD=0.0173	NRS=0.0173
MXI0/MM13@6	XI0/net9#211	XI0/net9#53	GNDA#157	GNDA	ne3
+ L=2e-06	W=1e-05
+ AD=4.8e-12	AS=4.8e-12	PD=2.096e-05	PS=2.096e-05
+ NRD=0.0173	NRS=0.0173
MXI0/MM25@2	XI0/net15#28	XI0/net9#44	GNDA#142	GNDA	ne3
+ L=2e-06	W=1e-05
+ AD=4.8e-12	AS=4.8e-12	PD=2.096e-05	PS=2.096e-05
+ NRD=0.0173	NRS=0.0173
MXI0/MM26	XI0/net13#35	XI0/net9#47	GNDA#147	GNDA	ne3
+ L=2e-06	W=1e-05
+ AD=4.8e-12	AS=4.8e-12	PD=2.096e-05	PS=2.096e-05
+ NRD=0.0173	NRS=0.0173
MXI0/MM13@1	XI0/net9#188	XI0/net9#38	GNDA#132	GNDA	ne3
+ L=2e-06	W=1e-05
+ AD=4.8e-12	AS=4.8e-12	PD=2.096e-05	PS=2.096e-05
+ NRD=0.0173	NRS=0.0173
MXI0/MM25@1	XI0/net15#23	XI0/net9#41	GNDA#137	GNDA	ne3
+ L=2e-06	W=1e-05
+ AD=4.8e-12	AS=4.8e-12	PD=2.096e-05	PS=2.096e-05
+ NRD=0.0173	NRS=0.0173
MXI0/MM26@2	XI0/net13#18	XI0/net9#32	GNDA#122	GNDA	ne3
+ L=2e-06	W=1e-05
+ AD=4.8e-12	AS=4.8e-12	PD=2.096e-05	PS=2.096e-05
+ NRD=0.0173	NRS=0.0173
MXI0/MM13@5	XI0/net9#174	XI0/net9#35	GNDA#127	GNDA	ne3
+ L=2e-06	W=1e-05
+ AD=4.8e-12	AS=4.8e-12	PD=2.096e-05	PS=2.096e-05
+ NRD=0.0173	NRS=0.0173
MXI0/MM25@4	XI0/net15#18	XI0/net9#26	GNDA#112	GNDA	ne3
+ L=2e-06	W=1e-05
+ AD=4.8e-12	AS=4.8e-12	PD=2.096e-05	PS=2.096e-05
+ NRD=0.0173	NRS=0.0173
MXI0/MM26@4	XI0/net13#13	XI0/net9#29	GNDA#117	GNDA	ne3
+ L=2e-06	W=1e-05
+ AD=4.8e-12	AS=4.8e-12	PD=2.096e-05	PS=2.096e-05
+ NRD=0.0173	NRS=0.0173
MXI0/MM13	XI0/net9#145	XI0/net9#20	GNDA#102	GNDA	ne3
+ L=2e-06	W=1e-05
+ AD=4.8e-12	AS=4.8e-12	PD=2.096e-05	PS=2.096e-05
+ NRD=0.0173	NRS=0.0173
MXI0/MM25	XI0/net15#13	XI0/net9#23	GNDA#107	GNDA	ne3
+ L=2e-06	W=1e-05
+ AD=4.8e-12	AS=4.8e-12	PD=2.096e-05	PS=2.096e-05
+ NRD=0.0173	NRS=0.0173
MXI0/MM26@5	XI0/net13#8	XI0/net9#14	GNDA#92	GNDA	ne3
+ L=2e-06	W=1e-05
+ AD=4.8e-12	AS=4.8e-12	PD=2.096e-05	PS=2.096e-05
+ NRD=0.0173	NRS=0.0173
MXI0/MM13@3	XI0/net9#131	XI0/net9#17	GNDA#97	GNDA	ne3
+ L=2e-06	W=1e-05
+ AD=4.8e-12	AS=4.8e-12	PD=2.096e-05	PS=2.096e-05
+ NRD=0.0173	NRS=0.0173
MXI0/MM25@5	XI0/net15#8	XI0/net9#8	GNDA#82	GNDA	ne3
+ L=2e-06	W=1e-05
+ AD=4.8e-12	AS=4.8e-12	PD=2.096e-05	PS=2.096e-05
+ NRD=0.0173	NRS=0.0173
MXI0/MM26@6	XI0/net13#3	XI0/net9#11	GNDA#87	GNDA	ne3
+ L=2e-06	W=1e-05
+ AD=4.8e-12	AS=4.8e-12	PD=2.096e-05	PS=2.096e-05
+ NRD=0.0173	NRS=0.0173
MXI0/MM13@2	XI0/net9#96	XI0/net9#2	GNDA#72	GNDA	ne3
+ L=2e-06	W=1e-05
+ AD=4.8e-12	AS=4.8e-12	PD=2.096e-05	PS=2.096e-05
+ NRD=0.0173	NRS=0.0173
MXI0/MM25@3	XI0/net15#3	XI0/net9#5	GNDA#77	GNDA	ne3
+ L=2e-06	W=1e-05
+ AD=4.8e-12	AS=4.8e-12	PD=2.096e-05	PS=2.096e-05
+ NRD=0.0173	NRS=0.0173
MXI0/MM40@3	GNDA#62	GNDA#2	GNDA#48	GNDA	ne3	L=2e-06
+ W=1e-05
+ AD=4.8e-12	AS=4.8e-12	PD=2.096e-05	PS=2.096e-05
+ NRD=0.0173	NRS=0.0173
MXI0/MM40@1	GNDA#67	GNDA#5	GNDA#55	GNDA	ne3	L=2e-06
+ W=1e-05
+ AD=4.8e-12	AS=4.8e-12	PD=2.096e-05	PS=2.096e-05
+ NRD=0.0173	NRS=0.0173
MXI0/MM38@3	XI0/A#15	BIAS1#50	XI0/net15#43	GNDA	ne3
+ L=2e-06	W=1e-05
+ AD=2.7e-12	AS=4.8e-12	PD=1.054e-05	PS=2.096e-05
+ NRD=0.0173	NRS=0.0173
MXI0/MM38@5	XI0/A#15	BIAS1#53	XI0/net15#48	GNDA	ne3
+ L=2e-06	W=1e-05
+ AD=2.7e-12	AS=2.7e-12	PD=1.054e-05	PS=1.054e-05
+ NRD=0.0173	NRS=0.0173
MXI0/MM38@1	XI0/A#20	BIAS1#56	XI0/net15#48	GNDA	ne3
+ L=2e-06	W=1e-05
+ AD=2.7e-12	AS=2.7e-12	PD=1.054e-05	PS=1.054e-05
+ NRD=0.0173	NRS=0.0173
MXI0/MM38@7	XI0/A#20	BIAS1#59	XI0/net15#53	GNDA	ne3
+ L=2e-06	W=1e-05
+ AD=2.7e-12	AS=2.7e-12	PD=1.054e-05	PS=1.054e-05
+ NRD=0.0173	NRS=0.0173
MXI0/MM38@4	XI0/A#63	BIAS1#62	XI0/net15#53	GNDA	ne3
+ L=2e-06	W=1e-05
+ AD=2.7e-12	AS=2.7e-12	PD=1.054e-05	PS=1.054e-05
+ NRD=0.0173	NRS=0.0173
MXI0/MM38@2	XI0/A#63	BIAS1#65	XI0/net15#58	GNDA	ne3
+ L=2e-06	W=1e-05
+ AD=2.7e-12	AS=2.7e-12	PD=1.054e-05	PS=1.054e-05
+ NRD=0.0173	NRS=0.0173
MXI0/MM38	XI0/A#88	BIAS1#68	XI0/net15#58	GNDA	ne3
+ L=2e-06	W=1e-05
+ AD=2.7e-12	AS=2.7e-12	PD=1.054e-05	PS=1.054e-05
+ NRD=0.0173	NRS=0.0173
MXI0/MM38@6	XI0/A#88	BIAS1#71	XI0/net15#63	GNDA	ne3
+ L=2e-06	W=1e-05
+ AD=2.7e-12	AS=4.8e-12	PD=1.054e-05	PS=2.096e-05
+ NRD=0.0173	NRS=0.0173
MXI0/MM37@3	XI0/net8#43	BIAS1#26	XI0/net13#24	GNDA	ne3
+ L=2e-06	W=1e-05
+ AD=2.7e-12	AS=4.8e-12	PD=1.054e-05	PS=2.096e-05
+ NRD=0.0173	NRS=0.0173
MXI0/MM37@5	XI0/net8#43	BIAS1#29	XI0/net13#30	GNDA	ne3
+ L=2e-06	W=1e-05
+ AD=2.7e-12	AS=2.7e-12	PD=1.054e-05	PS=1.054e-05
+ NRD=0.0173	NRS=0.0173
MXI0/MM37	XI0/net8#54	BIAS1#32	XI0/net13#30	GNDA	ne3
+ L=2e-06	W=1e-05
+ AD=2.7e-12	AS=2.7e-12	PD=1.054e-05	PS=1.054e-05
+ NRD=0.0173	NRS=0.0173
MXI0/MM37@7	XI0/net8#54	BIAS1#35	XI0/net13#46	GNDA	ne3
+ L=2e-06	W=1e-05
+ AD=2.7e-12	AS=2.7e-12	PD=1.054e-05	PS=1.054e-05
+ NRD=0.0173	NRS=0.0173
MXI0/MM37@1	XI0/net8#60	BIAS1#38	XI0/net13#46	GNDA	ne3
+ L=2e-06	W=1e-05
+ AD=2.7e-12	AS=2.7e-12	PD=1.054e-05	PS=1.054e-05
+ NRD=0.0173	NRS=0.0173
MXI0/MM37@6	XI0/net8#60	BIAS1#41	XI0/net13#57	GNDA	ne3
+ L=2e-06	W=1e-05
+ AD=2.7e-12	AS=2.7e-12	PD=1.054e-05	PS=1.054e-05
+ NRD=0.0173	NRS=0.0173
MXI0/MM37@4	XI0/net8#66	BIAS1#44	XI0/net13#57	GNDA	ne3
+ L=2e-06	W=1e-05
+ AD=2.7e-12	AS=2.7e-12	PD=1.054e-05	PS=1.054e-05
+ NRD=0.0173	NRS=0.0173
MXI0/MM37@2	XI0/net8#66	BIAS1#47	XI0/net13#68	GNDA	ne3
+ L=2e-06	W=1e-05
+ AD=2.7e-12	AS=4.8e-12	PD=1.054e-05	PS=2.096e-05
+ NRD=0.0173	NRS=0.0173
MXI0/MM39@6	BIAS1#82	BIAS1#2	XI0/net9#76	GNDA	ne3
+ L=2e-06	W=1e-05
+ AD=2.7e-12	AS=4.8e-12	PD=1.054e-05	PS=2.096e-05
+ NRD=0.0173	NRS=0.0173
MXI0/MM39@4	BIAS1#82	BIAS1#5	XI0/net9#82	GNDA	ne3
+ L=2e-06	W=1e-05
+ AD=2.7e-12	AS=2.7e-12	PD=1.054e-05	PS=1.054e-05
+ NRD=0.0173	NRS=0.0173
MXI0/MM39@5	BIAS1#100	BIAS1#8	XI0/net9#82	GNDA	ne3
+ L=2e-06	W=1e-05
+ AD=2.7e-12	AS=2.7e-12	PD=1.054e-05	PS=1.054e-05
+ NRD=0.0173	NRS=0.0173
MXI0/MM39@7	BIAS1#100	BIAS1#11	XI0/net9#102	GNDA	ne3
+ L=2e-06	W=1e-05
+ AD=2.7e-12	AS=2.7e-12	PD=1.054e-05	PS=1.054e-05
+ NRD=0.0173	NRS=0.0173
MXI0/MM39@2	BIAS1#118	BIAS1#14	XI0/net9#102	GNDA	ne3
+ L=2e-06	W=1e-05
+ AD=2.7e-12	AS=2.7e-12	PD=1.054e-05	PS=1.054e-05
+ NRD=0.0173	NRS=0.0173
MXI0/MM39	BIAS1#118	BIAS1#17	XI0/net9#117	GNDA	ne3
+ L=2e-06	W=1e-05
+ AD=2.7e-12	AS=2.7e-12	PD=1.054e-05	PS=1.054e-05
+ NRD=0.0173	NRS=0.0173
MXI0/MM39@1	BIAS1#136	BIAS1#20	XI0/net9#117	GNDA	ne3
+ L=2e-06	W=1e-05
+ AD=2.7e-12	AS=2.7e-12	PD=1.054e-05	PS=1.054e-05
+ NRD=0.0173	NRS=0.0173
MXI0/MM39@3	BIAS1#136	BIAS1#23	XI0/net9#151	GNDA	ne3
+ L=2e-06	W=1e-05
+ AD=2.7e-12	AS=4.8e-12	PD=1.054e-05	PS=2.096e-05
+ NRD=0.0173	NRS=0.0173
MXI1/MM8@15	GNDA#376	VDAC#31	XI1/net6#110	XI1/net6
+ pe3	L=5e-06	W=1e-05
+ AD=2.7e-12	AS=4.8e-12	PD=1.054e-05	PS=2.096e-05
+ NRD=0.0173	NRS=0.0173
MXI1/MM8@13	GNDA#376	VDAC#34	XI1/net6#131	XI1/net6
+ pe3	L=5e-06	W=1e-05
+ AD=2.7e-12	AS=2.7e-12	PD=1.054e-05	PS=1.054e-05
+ NRD=0.0173	NRS=0.0173
MXI1/MM8@8	GNDA#384	VDAC#37	XI1/net6#131	XI1/net6
+ pe3	L=5e-06	W=1e-05
+ AD=2.7e-12	AS=2.7e-12	PD=1.054e-05	PS=1.054e-05
+ NRD=0.0173	NRS=0.0173
MXI1/MM8@1	GNDA#384	VDAC#40	XI1/net6#141	XI1/net6
+ pe3	L=5e-06	W=1e-05
+ AD=2.7e-12	AS=2.7e-12	PD=1.054e-05	PS=1.054e-05
+ NRD=0.0173	NRS=0.0173
MXI1/MM8	GNDA#392	VDAC#43	XI1/net6#141	XI1/net6
+ pe3	L=5e-06	W=1e-05
+ AD=2.7e-12	AS=2.7e-12	PD=1.054e-05	PS=1.054e-05
+ NRD=0.0173	NRS=0.0173
MXI1/MM8@3	GNDA#392	VDAC#46	XI1/net6#157	XI1/net6
+ pe3	L=5e-06	W=1e-05
+ AD=2.7e-12	AS=2.7e-12	PD=1.054e-05	PS=1.054e-05
+ NRD=0.0173	NRS=0.0173
MXI1/MM8@11	GNDA#400	VDAC#49	XI1/net6#157	XI1/net6
+ pe3	L=5e-06	W=1e-05
+ AD=2.7e-12	AS=2.7e-12	PD=1.054e-05	PS=1.054e-05
+ NRD=0.0173	NRS=0.0173
MXI1/MM8@12	GNDA#400	VDAC#52	XI1/net6#173	XI1/net6
+ pe3	L=5e-06	W=1e-05
+ AD=2.7e-12	AS=2.7e-12	PD=1.054e-05	PS=1.054e-05
+ NRD=0.0173	NRS=0.0173
MXI1/MM8@14	GNDA#408	VDAC#55	XI1/net6#173	XI1/net6
+ pe3	L=5e-06	W=1e-05
+ AD=4.8e-12	AS=2.7e-12	PD=2.096e-05	PS=1.054e-05
+ NRD=0.0173	NRS=0.0173
MXI1/MM7@14	GNDA#380	XI1/net1#29	XI1/net10#110	XI1/net10
+ pe3	L=5e-06	W=1e-05
+ AD=2.7e-12	AS=4.8e-12	PD=1.054e-05	PS=2.096e-05
+ NRD=0.0173	NRS=0.0173
MXI1/MM7@10	GNDA#380	XI1/net1#32	XI1/net10#131	XI1/net10
+ pe3	L=5e-06	W=1e-05
+ AD=2.7e-12	AS=2.7e-12	PD=1.054e-05	PS=1.054e-05
+ NRD=0.0173	NRS=0.0173
MXI1/MM7@7	GNDA#388	XI1/net1#35	XI1/net10#131	XI1/net10
+ pe3	L=5e-06	W=1e-05
+ AD=2.7e-12	AS=2.7e-12	PD=1.054e-05	PS=1.054e-05
+ NRD=0.0173	NRS=0.0173
MXI1/MM7@4	GNDA#388	XI1/net1#38	XI1/net10#141	XI1/net10
+ pe3	L=5e-06	W=1e-05
+ AD=2.7e-12	AS=2.7e-12	PD=1.054e-05	PS=1.054e-05
+ NRD=0.0173	NRS=0.0173
MXI1/MM7@5	GNDA#396	XI1/net1#41	XI1/net10#141	XI1/net10
+ pe3	L=5e-06	W=1e-05
+ AD=2.7e-12	AS=2.7e-12	PD=1.054e-05	PS=1.054e-05
+ NRD=0.0173	NRS=0.0173
MXI1/MM7@9	GNDA#396	XI1/net1#44	XI1/net10#157	XI1/net10
+ pe3	L=5e-06	W=1e-05
+ AD=2.7e-12	AS=2.7e-12	PD=1.054e-05	PS=1.054e-05
+ NRD=0.0173	NRS=0.0173
MXI1/MM7@13	GNDA#404	XI1/net1#47	XI1/net10#157	XI1/net10
+ pe3	L=5e-06	W=1e-05
+ AD=2.7e-12	AS=2.7e-12	PD=1.054e-05	PS=1.054e-05
+ NRD=0.0173	NRS=0.0173
MXI1/MM7@1	GNDA#404	XI1/net1#50	XI1/net10#173	XI1/net10
+ pe3	L=5e-06	W=1e-05
+ AD=2.7e-12	AS=2.7e-12	PD=1.054e-05	PS=1.054e-05
+ NRD=0.0173	NRS=0.0173
MXI1/MM7@6	GNDA#412	XI1/net1#53	XI1/net10#173	XI1/net10
+ pe3	L=5e-06	W=1e-05
+ AD=4.8e-12	AS=2.7e-12	PD=2.096e-05	PS=1.054e-05
+ NRD=0.0173	NRS=0.0173
MXI1/MM7@17	GNDA#336	XI1/net1#2	XI1/net10#43	XI1/net10
+ pe3	L=5e-06	W=1e-05
+ AD=2.7e-12	AS=4.8e-12	PD=1.054e-05	PS=2.096e-05
+ NRD=0.0173	NRS=0.0173
MXI1/MM7	GNDA#336	XI1/net1#5	XI1/net10#47	XI1/net10
+ pe3	L=5e-06	W=1e-05
+ AD=2.7e-12	AS=2.7e-12	PD=1.054e-05	PS=1.054e-05
+ NRD=0.0173	NRS=0.0173
MXI1/MM7@3	GNDA#344	XI1/net1#8	XI1/net10#47	XI1/net10
+ pe3	L=5e-06	W=1e-05
+ AD=2.7e-12	AS=2.7e-12	PD=1.054e-05	PS=1.054e-05
+ NRD=0.0173	NRS=0.0173
MXI1/MM7@16	GNDA#344	XI1/net1#11	XI1/net10#63	XI1/net10
+ pe3	L=5e-06	W=1e-05
+ AD=2.7e-12	AS=2.7e-12	PD=1.054e-05	PS=1.054e-05
+ NRD=0.0173	NRS=0.0173
MXI1/MM7@2	GNDA#352	XI1/net1#14	XI1/net10#63	XI1/net10
+ pe3	L=5e-06	W=1e-05
+ AD=2.7e-12	AS=2.7e-12	PD=1.054e-05	PS=1.054e-05
+ NRD=0.0173	NRS=0.0173
MXI1/MM7@12	GNDA#352	XI1/net1#17	XI1/net10#79	XI1/net10
+ pe3	L=5e-06	W=1e-05
+ AD=2.7e-12	AS=2.7e-12	PD=1.054e-05	PS=1.054e-05
+ NRD=0.0173	NRS=0.0173
MXI1/MM7@11	GNDA#360	XI1/net1#20	XI1/net10#79	XI1/net10
+ pe3	L=5e-06	W=1e-05
+ AD=2.7e-12	AS=2.7e-12	PD=1.054e-05	PS=1.054e-05
+ NRD=0.0173	NRS=0.0173
MXI1/MM7@8	GNDA#360	XI1/net1#23	XI1/net10#89	XI1/net10
+ pe3	L=5e-06	W=1e-05
+ AD=2.7e-12	AS=2.7e-12	PD=1.054e-05	PS=1.054e-05
+ NRD=0.0173	NRS=0.0173
MXI1/MM7@15	GNDA#368	XI1/net1#26	XI1/net10#89	XI1/net10
+ pe3	L=5e-06	W=1e-05
+ AD=4.8e-12	AS=2.7e-12	PD=2.096e-05	PS=1.054e-05
+ NRD=0.0173	NRS=0.0173
MXI1/MM8@17	GNDA#340	VDAC#4	XI1/net6#43	XI1/net6	pe3
+ L=5e-06	W=1e-05
+ AD=2.7e-12	AS=4.8e-12	PD=1.054e-05	PS=2.096e-05
+ NRD=0.0173	NRS=0.0173
MXI1/MM8@2	GNDA#340	VDAC#7	XI1/net6#47	XI1/net6	pe3
+ L=5e-06	W=1e-05
+ AD=2.7e-12	AS=2.7e-12	PD=1.054e-05	PS=1.054e-05
+ NRD=0.0173	NRS=0.0173
MXI1/MM8@7	GNDA#348	VDAC#10	XI1/net6#47	XI1/net6
+ pe3	L=5e-06	W=1e-05
+ AD=2.7e-12	AS=2.7e-12	PD=1.054e-05	PS=1.054e-05
+ NRD=0.0173	NRS=0.0173
MXI1/MM8@10	GNDA#348	VDAC#13	XI1/net6#63	XI1/net6
+ pe3	L=5e-06	W=1e-05
+ AD=2.7e-12	AS=2.7e-12	PD=1.054e-05	PS=1.054e-05
+ NRD=0.0173	NRS=0.0173
MXI1/MM8@4	GNDA#356	VDAC#16	XI1/net6#63	XI1/net6
+ pe3	L=5e-06	W=1e-05
+ AD=2.7e-12	AS=2.7e-12	PD=1.054e-05	PS=1.054e-05
+ NRD=0.0173	NRS=0.0173
MXI1/MM8@16	GNDA#356	VDAC#19	XI1/net6#79	XI1/net6
+ pe3	L=5e-06	W=1e-05
+ AD=2.7e-12	AS=2.7e-12	PD=1.054e-05	PS=1.054e-05
+ NRD=0.0173	NRS=0.0173
MXI1/MM8@5	GNDA#364	VDAC#22	XI1/net6#79	XI1/net6
+ pe3	L=5e-06	W=1e-05
+ AD=2.7e-12	AS=2.7e-12	PD=1.054e-05	PS=1.054e-05
+ NRD=0.0173	NRS=0.0173
MXI1/MM8@9	GNDA#364	VDAC#25	XI1/net6#89	XI1/net6
+ pe3	L=5e-06	W=1e-05
+ AD=2.7e-12	AS=2.7e-12	PD=1.054e-05	PS=1.054e-05
+ NRD=0.0173	NRS=0.0173
MXI1/MM8@6	GNDA#372	VDAC#28	XI1/net6#89	XI1/net6
+ pe3	L=5e-06	W=1e-05
+ AD=4.8e-12	AS=2.7e-12	PD=2.096e-05	PS=1.054e-05
+ NRD=0.0173	NRS=0.0173
MXI1/MM30@3	VDD3A#2236	VDD3A#338	VDD3A#2230	VDD3A	pe3
+ L=5e-06	W=1e-05
+ AD=4.8e-12	AS=4.8e-12	PD=2.096e-05	PS=2.096e-05
+ NRD=0.0173	NRS=0.0173
MXI1/MM29@1	VDD3A#2224	VDD3A#341	VDD3A#2218	VDD3A	pe3
+ L=5e-06	W=1e-05
+ AD=4.8e-12	AS=4.8e-12	PD=2.096e-05	PS=2.096e-05
+ NRD=0.0173	NRS=0.0173
MXI1/MM29@3	VDD3A#2137	VDD3A#332	VDD3A#2143	VDD3A	pe3
+ L=5e-06	W=1e-05
+ AD=4.8e-12	AS=4.8e-12	PD=2.096e-05	PS=2.096e-05
+ NRD=0.0173	NRS=0.0173
MXI1/MM30	VDD3A#2156	VDD3A#335	VDD3A#2150	VDD3A	pe3
+ L=5e-06	W=1e-05
+ AD=4.8e-12	AS=4.8e-12	PD=2.096e-05	PS=2.096e-05
+ NRD=0.0173	NRS=0.0173
MXI1/MM5@7	XI1/net9#114	XI1/net10#41	XI1/net8#273	VDD3A	pe3
+ L=5e-06	W=1e-05
+ AD=4.8e-12	AS=4.8e-12	PD=2.096e-05	PS=2.096e-05
+ NRD=0.0173	NRS=0.0173
MXI1/MM3@5	XI1/net7#104	XI1/net6#41	XI1/net8#280	VDD3A	pe3
+ L=5e-06	W=1e-05
+ AD=4.8e-12	AS=4.8e-12	PD=2.096e-05	PS=2.096e-05
+ NRD=0.0173	NRS=0.0173
MXI1/MM10@18	XI1/net8#289	XI1/net4#74	VDD3A#2127	VDD3A	pe3
+ L=5e-06	W=1e-05
+ AD=4.8e-12	AS=4.8e-12	PD=2.096e-05	PS=2.096e-05
+ NRD=0.0173	NRS=0.0173
MXI1/MM10@17	XI1/net8#294	XI1/net4#77	VDD3A#2132	VDD3A	pe3
+ L=5e-06	W=1e-05
+ AD=4.8e-12	AS=4.8e-12	PD=2.096e-05	PS=2.096e-05
+ NRD=0.0173	NRS=0.0173
MXI1/MM3@2	XI1/net7#97	XI1/net6#38	XI1/net8#249	VDD3A	pe3
+ L=5e-06	W=1e-05
+ AD=4.8e-12	AS=4.8e-12	PD=2.096e-05	PS=2.096e-05
+ NRD=0.0173	NRS=0.0173
MXI1/MM5@8	XI1/net9#107	XI1/net10#38	XI1/net8#256	VDD3A	pe3
+ L=5e-06	W=1e-05
+ AD=4.8e-12	AS=4.8e-12	PD=2.096e-05	PS=2.096e-05
+ NRD=0.0173	NRS=0.0173
MXI1/MM10@5	XI1/net8#265	XI1/net4#68	VDD3A#2112	VDD3A	pe3
+ L=5e-06	W=1e-05
+ AD=4.8e-12	AS=4.8e-12	PD=2.096e-05	PS=2.096e-05
+ NRD=0.0173	NRS=0.0173
MXI1/MM10@15	XI1/net8#270	XI1/net4#71	VDD3A#2117	VDD3A	pe3
+ L=5e-06	W=1e-05
+ AD=4.8e-12	AS=4.8e-12	PD=2.096e-05	PS=2.096e-05
+ NRD=0.0173	NRS=0.0173
MXI1/MM5@10	XI1/net9#100	XI1/net10#35	XI1/net8#225	VDD3A	pe3
+ L=5e-06	W=1e-05
+ AD=4.8e-12	AS=4.8e-12	PD=2.096e-05	PS=2.096e-05
+ NRD=0.0173	NRS=0.0173
MXI1/MM3@4	XI1/net7#90	XI1/net6#35	XI1/net8#232	VDD3A	pe3
+ L=5e-06	W=1e-05
+ AD=4.8e-12	AS=4.8e-12	PD=2.096e-05	PS=2.096e-05
+ NRD=0.0173	NRS=0.0173
MXI1/MM10	XI1/net8#241	XI1/net4#62	VDD3A#2102	VDD3A	pe3
+ L=5e-06	W=1e-05
+ AD=4.8e-12	AS=4.8e-12	PD=2.096e-05	PS=2.096e-05
+ NRD=0.0173	NRS=0.0173
MXI1/MM10@11	XI1/net8#246	XI1/net4#65	VDD3A#2107	VDD3A	pe3
+ L=5e-06	W=1e-05
+ AD=4.8e-12	AS=4.8e-12	PD=2.096e-05	PS=2.096e-05
+ NRD=0.0173	NRS=0.0173
MXI1/MM3@8	XI1/net7#83	XI1/net6#32	XI1/net8#201	VDD3A	pe3
+ L=5e-06	W=1e-05
+ AD=4.8e-12	AS=4.8e-12	PD=2.096e-05	PS=2.096e-05
+ NRD=0.0173	NRS=0.0173
MXI1/MM5@2	XI1/net9#93	XI1/net10#32	XI1/net8#208	VDD3A	pe3
+ L=5e-06	W=1e-05
+ AD=4.8e-12	AS=4.8e-12	PD=2.096e-05	PS=2.096e-05
+ NRD=0.0173	NRS=0.0173
MXI1/MM10@6	XI1/net8#217	XI1/net4#56	VDD3A#2092	VDD3A	pe3
+ L=5e-06	W=1e-05
+ AD=4.8e-12	AS=4.8e-12	PD=2.096e-05	PS=2.096e-05
+ NRD=0.0173	NRS=0.0173
MXI1/MM10@9	XI1/net8#222	XI1/net4#59	VDD3A#2097	VDD3A	pe3
+ L=5e-06	W=1e-05
+ AD=4.8e-12	AS=4.8e-12	PD=2.096e-05	PS=2.096e-05
+ NRD=0.0173	NRS=0.0173
MXI1/MM5@11	XI1/net9#86	XI1/net10#29	XI1/net8#177	VDD3A	pe3
+ L=5e-06	W=1e-05
+ AD=4.8e-12	AS=4.8e-12	PD=2.096e-05	PS=2.096e-05
+ NRD=0.0173	NRS=0.0173
MXI1/MM3@1	XI1/net7#76	XI1/net6#29	XI1/net8#184	VDD3A	pe3
+ L=5e-06	W=1e-05
+ AD=4.8e-12	AS=4.8e-12	PD=2.096e-05	PS=2.096e-05
+ NRD=0.0173	NRS=0.0173
MXI1/MM10@14	XI1/net8#193	XI1/net4#50	VDD3A#2082	VDD3A	pe3
+ L=5e-06	W=1e-05
+ AD=4.8e-12	AS=4.8e-12	PD=2.096e-05	PS=2.096e-05
+ NRD=0.0173	NRS=0.0173
MXI1/MM10@1	XI1/net8#198	XI1/net4#53	VDD3A#2087	VDD3A	pe3
+ L=5e-06	W=1e-05
+ AD=4.8e-12	AS=4.8e-12	PD=2.096e-05	PS=2.096e-05
+ NRD=0.0173	NRS=0.0173
MXI1/MM3@9	XI1/net7#69	XI1/net6#26	XI1/net8#163	VDD3A	pe3
+ L=5e-06	W=1e-05
+ AD=4.8e-12	AS=4.8e-12	PD=2.096e-05	PS=2.096e-05
+ NRD=0.0173	NRS=0.0173
MXI1/MM5	XI1/net9#79	XI1/net10#26	XI1/net8#170	VDD3A	pe3
+ L=5e-06	W=1e-05
+ AD=4.8e-12	AS=4.8e-12	PD=2.096e-05	PS=2.096e-05
+ NRD=0.0173	NRS=0.0173
MXI1/MM11@1	XI1/net10#122	XI1/net4#44	VDD3A#2067	VDD3A	pe3
+ L=5e-06	W=1e-05
+ AD=4.8e-12	AS=4.8e-12	PD=2.096e-05	PS=2.096e-05
+ NRD=0.0173	NRS=0.0173
MXI1/MM9@1	XI1/net6#122	XI1/net4#47	VDD3A#2072	VDD3A	pe3
+ L=5e-06	W=1e-05
+ AD=4.8e-12	AS=4.8e-12	PD=2.096e-05	PS=2.096e-05
+ NRD=0.0173	NRS=0.0173
MXI1/MM5@13	XI1/net9#72	XI1/net10#23	XI1/net8#149	VDD3A	pe3
+ L=5e-06	W=1e-05
+ AD=4.8e-12	AS=4.8e-12	PD=2.096e-05	PS=2.096e-05
+ NRD=0.0173	NRS=0.0173
MXI1/MM3@13	XI1/net7#62	XI1/net6#23	XI1/net8#156	VDD3A	pe3
+ L=5e-06	W=1e-05
+ AD=4.8e-12	AS=4.8e-12	PD=2.096e-05	PS=2.096e-05
+ NRD=0.0173	NRS=0.0173
MXI1/MM12@1	XI1/net4#150	XI1/net4#38	VDD3A#2057	VDD3A	pe3
+ L=5e-06	W=1e-05
+ AD=4.8e-12	AS=4.8e-12	PD=2.096e-05	PS=2.096e-05
+ NRD=0.0173	NRS=0.0173
MXI1/MM12	XI1/net4#155	XI1/net4#41	VDD3A#2062	VDD3A	pe3
+ L=5e-06	W=1e-05
+ AD=4.8e-12	AS=4.8e-12	PD=2.096e-05	PS=2.096e-05
+ NRD=0.0173	NRS=0.0173
MXI1/MM3@11	XI1/net7#55	XI1/net6#20	XI1/net8#135	VDD3A	pe3
+ L=5e-06	W=1e-05
+ AD=4.8e-12	AS=4.8e-12	PD=2.096e-05	PS=2.096e-05
+ NRD=0.0173	NRS=0.0173
MXI1/MM5@5	XI1/net9#65	XI1/net10#20	XI1/net8#142	VDD3A	pe3
+ L=5e-06	W=1e-05
+ AD=4.8e-12	AS=4.8e-12	PD=2.096e-05	PS=2.096e-05
+ NRD=0.0173	NRS=0.0173
MXI1/MM9	XI1/net6#101	XI1/net4#32	VDD3A#2047	VDD3A	pe3
+ L=5e-06	W=1e-05
+ AD=4.8e-12	AS=4.8e-12	PD=2.096e-05	PS=2.096e-05
+ NRD=0.0173	NRS=0.0173
MXI1/MM11	XI1/net10#101	XI1/net4#35	VDD3A#2052	VDD3A	pe3
+ L=5e-06	W=1e-05
+ AD=4.8e-12	AS=4.8e-12	PD=2.096e-05	PS=2.096e-05
+ NRD=0.0173	NRS=0.0173
MXI1/MM5@6	XI1/net9#58	XI1/net10#17	XI1/net8#111	VDD3A	pe3
+ L=5e-06	W=1e-05
+ AD=4.8e-12	AS=4.8e-12	PD=2.096e-05	PS=2.096e-05
+ NRD=0.0173	NRS=0.0173
MXI1/MM3@3	XI1/net7#48	XI1/net6#17	XI1/net8#118	VDD3A	pe3
+ L=5e-06	W=1e-05
+ AD=4.8e-12	AS=4.8e-12	PD=2.096e-05	PS=2.096e-05
+ NRD=0.0173	NRS=0.0173
MXI1/MM10@8	XI1/net8#127	XI1/net4#26	VDD3A#2032	VDD3A	pe3
+ L=5e-06	W=1e-05
+ AD=4.8e-12	AS=4.8e-12	PD=2.096e-05	PS=2.096e-05
+ NRD=0.0173	NRS=0.0173
MXI1/MM10@2	XI1/net8#132	XI1/net4#29	VDD3A#2037	VDD3A	pe3
+ L=5e-06	W=1e-05
+ AD=4.8e-12	AS=4.8e-12	PD=2.096e-05	PS=2.096e-05
+ NRD=0.0173	NRS=0.0173
MXI1/MM3	XI1/net7#41	XI1/net6#14	XI1/net8#87	VDD3A	pe3
+ L=5e-06	W=1e-05
+ AD=4.8e-12	AS=4.8e-12	PD=2.096e-05	PS=2.096e-05
+ NRD=0.0173	NRS=0.0173
MXI1/MM5@9	XI1/net9#51	XI1/net10#14	XI1/net8#94	VDD3A	pe3
+ L=5e-06	W=1e-05
+ AD=4.8e-12	AS=4.8e-12	PD=2.096e-05	PS=2.096e-05
+ NRD=0.0173	NRS=0.0173
MXI1/MM10@16	XI1/net8#103	XI1/net4#20	VDD3A#2022	VDD3A	pe3
+ L=5e-06	W=1e-05
+ AD=4.8e-12	AS=4.8e-12	PD=2.096e-05	PS=2.096e-05
+ NRD=0.0173	NRS=0.0173
MXI1/MM10@4	XI1/net8#108	XI1/net4#23	VDD3A#2027	VDD3A	pe3
+ L=5e-06	W=1e-05
+ AD=4.8e-12	AS=4.8e-12	PD=2.096e-05	PS=2.096e-05
+ NRD=0.0173	NRS=0.0173
MXI1/MM5@4	XI1/net9#44	XI1/net10#11	XI1/net8#63	VDD3A	pe3
+ L=5e-06	W=1e-05
+ AD=4.8e-12	AS=4.8e-12	PD=2.096e-05	PS=2.096e-05
+ NRD=0.0173	NRS=0.0173
MXI1/MM3@7	XI1/net7#34	XI1/net6#11	XI1/net8#70	VDD3A	pe3
+ L=5e-06	W=1e-05
+ AD=4.8e-12	AS=4.8e-12	PD=2.096e-05	PS=2.096e-05
+ NRD=0.0173	NRS=0.0173
MXI1/MM10@7	XI1/net8#79	XI1/net4#14	VDD3A#2012	VDD3A	pe3
+ L=5e-06	W=1e-05
+ AD=4.8e-12	AS=4.8e-12	PD=2.096e-05	PS=2.096e-05
+ NRD=0.0173	NRS=0.0173
MXI1/MM10@12	XI1/net8#84	XI1/net4#17	VDD3A#2017	VDD3A	pe3
+ L=5e-06	W=1e-05
+ AD=4.8e-12	AS=4.8e-12	PD=2.096e-05	PS=2.096e-05
+ NRD=0.0173	NRS=0.0173
MXI1/MM3@12	XI1/net7#27	XI1/net6#8	XI1/net8#39	VDD3A	pe3
+ L=5e-06	W=1e-05
+ AD=4.8e-12	AS=4.8e-12	PD=2.096e-05	PS=2.096e-05
+ NRD=0.0173	NRS=0.0173
MXI1/MM5@12	XI1/net9#37	XI1/net10#8	XI1/net8#46	VDD3A	pe3
+ L=5e-06	W=1e-05
+ AD=4.8e-12	AS=4.8e-12	PD=2.096e-05	PS=2.096e-05
+ NRD=0.0173	NRS=0.0173
MXI1/MM10@19	XI1/net8#55	XI1/net4#8	VDD3A#2002	VDD3A	pe3
+ L=5e-06	W=1e-05
+ AD=4.8e-12	AS=4.8e-12	PD=2.096e-05	PS=2.096e-05
+ NRD=0.0173	NRS=0.0173
MXI1/MM10@10	XI1/net8#60	XI1/net4#11	VDD3A#2007	VDD3A	pe3
+ L=5e-06	W=1e-05
+ AD=4.8e-12	AS=4.8e-12	PD=2.096e-05	PS=2.096e-05
+ NRD=0.0173	NRS=0.0173
MXI1/MM5@3	XI1/net9#30	XI1/net10#5	XI1/net8#15	VDD3A	pe3
+ L=5e-06	W=1e-05
+ AD=4.8e-12	AS=4.8e-12	PD=2.096e-05	PS=2.096e-05
+ NRD=0.0173	NRS=0.0173
MXI1/MM3@6	XI1/net7#20	XI1/net6#5	XI1/net8#22	VDD3A	pe3
+ L=5e-06	W=1e-05
+ AD=4.8e-12	AS=4.8e-12	PD=2.096e-05	PS=2.096e-05
+ NRD=0.0173	NRS=0.0173
MXI1/MM10@13	XI1/net8#31	XI1/net4#2	VDD3A#1987	VDD3A	pe3
+ L=5e-06	W=1e-05
+ AD=4.8e-12	AS=4.8e-12	PD=2.096e-05	PS=2.096e-05
+ NRD=0.0173	NRS=0.0173
MXI1/MM10@3	XI1/net8#36	XI1/net4#5	VDD3A#1992	VDD3A	pe3
+ L=5e-06	W=1e-05
+ AD=4.8e-12	AS=4.8e-12	PD=2.096e-05	PS=2.096e-05
+ NRD=0.0173	NRS=0.0173
MXI1/MM3@10	XI1/net7#13	XI1/net6#2	XI1/net8	VDD3A	pe3
+ L=5e-06	W=1e-05
+ AD=4.8e-12	AS=4.8e-12	PD=2.096e-05	PS=2.096e-05
+ NRD=0.0173	NRS=0.0173
MXI1/MM5@1	XI1/net9#23	XI1/net10#2	XI1/net8#8	VDD3A	pe3
+ L=5e-06	W=1e-05
+ AD=4.8e-12	AS=4.8e-12	PD=2.096e-05	PS=2.096e-05
+ NRD=0.0173	NRS=0.0173
MXI1/MM29	VDD3A#1961	VDD3A#306	VDD3A#1967	VDD3A	pe3
+ L=5e-06	W=1e-05
+ AD=4.8e-12	AS=4.8e-12	PD=2.096e-05	PS=2.096e-05
+ NRD=0.0173	NRS=0.0173
MXI1/MM29@2	VDD3A#1980	VDD3A#309	VDD3A#1974	VDD3A	pe3
+ L=5e-06	W=1e-05
+ AD=4.8e-12	AS=4.8e-12	PD=2.096e-05	PS=2.096e-05
+ NRD=0.0173	NRS=0.0173
MXI1/MM30@1	VDD3A#2210	VDD3A#300	VDD3A#2204	VDD3A	pe3
+ L=5e-06	W=1e-05
+ AD=4.8e-12	AS=4.8e-12	PD=2.096e-05	PS=2.096e-05
+ NRD=0.0173	NRS=0.0173
MXI1/MM30@2	VDD3A#2198	VDD3A#303	VDD3A#2192	VDD3A	pe3
+ L=5e-06	W=1e-05
+ AD=4.8e-12	AS=4.8e-12	PD=2.096e-05	PS=2.096e-05
+ NRD=0.0173	NRS=0.0173
MXI1/MM35	XI1/net13#15	PULSE_ACTIVE#6	VDD3A#1858	VDD3A	pe3
+ L=3e-07	W=3e-06
+ AD=8.1e-13	AS=1.44e-12	PD=3.54e-06	PS=6.96e-06
+ NRD=0.0576667	NRS=0.0576667
MXI1/MM35@1	XI1/net13#15	PULSE_ACTIVE#10	VDD3A#1867	VDD3A
+ pe3	L=3e-07	W=3e-06
+ AD=8.1e-13	AS=1.44e-12	PD=3.54e-06	PS=6.96e-06
+ NRD=0.0576667	NRS=0.0576667
MXI1/MM26@1	XI1/net16#15	ENABLE#14	VDD3A#1869	VDD3A	pe3
+ L=3e-07	W=3e-06
+ AD=8.1e-13	AS=1.44e-12	PD=3.54e-06	PS=6.96e-06
+ NRD=0.0576667	NRS=0.0576667
MXI1/MM26	XI1/net16#15	ENABLE#18	VDD3A#1871	VDD3A	pe3
+ L=3e-07	W=3e-06
+ AD=8.1e-13	AS=1.44e-12	PD=3.54e-06	PS=6.96e-06
+ NRD=0.0576667	NRS=0.0576667
MXI1/MM20@2	XI1/VB#36	XI1/net15#14	VDD3A#1923	VDD3A	pe3
+ L=1e-06	W=1e-05
+ AD=4.8e-12	AS=4.8e-12	PD=2.096e-05	PS=2.096e-05
+ NRD=0.0173	NRS=0.0173
MXI1/MM20	XI1/VB#31	XI1/net15#11	VDD3A#1918	VDD3A	pe3
+ L=1e-06	W=1e-05
+ AD=4.8e-12	AS=4.8e-12	PD=2.096e-05	PS=2.096e-05
+ NRD=0.0173	NRS=0.0173
MXI1/MM23	XI1/net15#36	XI1/net15#8	VDD3A#1913	VDD3A	pe3
+ L=1e-06	W=1e-05
+ AD=4.8e-12	AS=4.8e-12	PD=2.096e-05	PS=2.096e-05
+ NRD=0.0173	NRS=0.0173
MXI1/MM20@1	XI1/VB#26	XI1/net15#5	VDD3A#1908	VDD3A	pe3
+ L=1e-06	W=1e-05
+ AD=4.8e-12	AS=4.8e-12	PD=2.096e-05	PS=2.096e-05
+ NRD=0.0173	NRS=0.0173
MXI1/MM20@3	XI1/VB#21	XI1/net15#2	VDD3A#1903	VDD3A	pe3
+ L=1e-06	W=1e-05
+ AD=4.8e-12	AS=4.8e-12	PD=2.096e-05	PS=2.096e-05
+ NRD=0.0173	NRS=0.0173
MXI0/MM5@30	XI0/net5#198	XI0/net7#233	VDD3A#1415	VDD3A	pe3
+ L=1e-05	W=1e-05
+ AD=4.8e-12	AS=4.8e-12	PD=2.096e-05	PS=2.096e-05
+ NRD=0.0173	NRS=0.0173
MXI0/MM5@13	XI0/net5#173	XI0/net7#213	VDD3A#1334	VDD3A	pe3
+ L=1e-05	W=1e-05
+ AD=4.8e-12	AS=4.8e-12	PD=2.096e-05	PS=2.096e-05
+ NRD=0.0173	NRS=0.0173
MXI0/MM14@1	XI0/net19#82	XI0/net7#193	VDD3A#1246	VDD3A	pe3
+ L=1e-05	W=1e-05
+ AD=4.8e-12	AS=4.8e-12	PD=2.096e-05	PS=2.096e-05
+ NRD=0.0173	NRS=0.0173
MXI0/MM4@3	XI0/net4#63	XI0/net7#169	VDD3A#1176	VDD3A	pe3
+ L=1e-05	W=1e-05
+ AD=4.8e-12	AS=4.8e-12	PD=2.096e-05	PS=2.096e-05
+ NRD=0.0173	NRS=0.0173
MXI0/MM5@15	XI0/net5#203	XI0/net7#237	VDD3A#1422	VDD3A	pe3
+ L=1e-05	W=1e-05
+ AD=4.8e-12	AS=4.8e-12	PD=2.096e-05	PS=2.096e-05
+ NRD=0.0173	NRS=0.0173
MXI0/MM5@18	XI0/net5#178	XI0/net7#217	VDD3A#1341	VDD3A	pe3
+ L=1e-05	W=1e-05
+ AD=4.8e-12	AS=4.8e-12	PD=2.096e-05	PS=2.096e-05
+ NRD=0.0173	NRS=0.0173
MXI0/MM4@14	XI0/net4#95	XI0/net7#197	VDD3A#1253	VDD3A	pe3
+ L=1e-05	W=1e-05
+ AD=4.8e-12	AS=4.8e-12	PD=2.096e-05	PS=2.096e-05
+ NRD=0.0173	NRS=0.0173
MXI0/MM3@1	XI0/net3#26	XI0/net7#173	VDD3A#1183	VDD3A	pe3
+ L=1e-05	W=1e-05
+ AD=4.8e-12	AS=4.8e-12	PD=2.096e-05	PS=2.096e-05
+ NRD=0.0173	NRS=0.0173
MXI0/MM5	XI0/net5#208	XI0/net7#241	VDD3A#1429	VDD3A	pe3
+ L=1e-05	W=1e-05
+ AD=4.8e-12	AS=4.8e-12	PD=2.096e-05	PS=2.096e-05
+ NRD=0.0173	NRS=0.0173
MXI0/MM5@9	XI0/net5#183	XI0/net7#221	VDD3A#1348	VDD3A	pe3
+ L=1e-05	W=1e-05
+ AD=4.8e-12	AS=4.8e-12	PD=2.096e-05	PS=2.096e-05
+ NRD=0.0173	NRS=0.0173
MXI0/MM4@9	XI0/net4#100	XI0/net7#201	VDD3A#1260	VDD3A	pe3
+ L=1e-05	W=1e-05
+ AD=4.8e-12	AS=4.8e-12	PD=2.096e-05	PS=2.096e-05
+ NRD=0.0173	NRS=0.0173
MXI0/MM4@12	XI0/net4#68	XI0/net7#177	VDD3A#1190	VDD3A	pe3
+ L=1e-05	W=1e-05
+ AD=4.8e-12	AS=4.8e-12	PD=2.096e-05	PS=2.096e-05
+ NRD=0.0173	NRS=0.0173
MXI0/MM5@27	XI0/net5#213	XI0/net7#245	VDD3A#1436	VDD3A	pe3
+ L=1e-05	W=1e-05
+ AD=4.8e-12	AS=4.8e-12	PD=2.096e-05	PS=2.096e-05
+ NRD=0.0173	NRS=0.0173
MXI0/MM5@14	XI0/net5#188	XI0/net7#225	VDD3A#1355	VDD3A	pe3
+ L=1e-05	W=1e-05
+ AD=4.8e-12	AS=4.8e-12	PD=2.096e-05	PS=2.096e-05
+ NRD=0.0173	NRS=0.0173
MXI0/MM4@2	XI0/net4#105	XI0/net7#205	VDD3A#1267	VDD3A	pe3
+ L=1e-05	W=1e-05
+ AD=4.8e-12	AS=4.8e-12	PD=2.096e-05	PS=2.096e-05
+ NRD=0.0173	NRS=0.0173
MXI0/MM3@6	XI0/net3#31	XI0/net7#181	VDD3A#1197	VDD3A	pe3
+ L=1e-05	W=1e-05
+ AD=4.8e-12	AS=4.8e-12	PD=2.096e-05	PS=2.096e-05
+ NRD=0.0173	NRS=0.0173
MXI0/MM5@16	XI0/net5#218	XI0/net7#249	VDD3A#1443	VDD3A	pe3
+ L=1e-05	W=1e-05
+ AD=4.8e-12	AS=4.8e-12	PD=2.096e-05	PS=2.096e-05
+ NRD=0.0173	NRS=0.0173
MXI0/MM5@25	XI0/net5#193	XI0/net7#229	VDD3A#1362	VDD3A	pe3
+ L=1e-05	W=1e-05
+ AD=4.8e-12	AS=4.8e-12	PD=2.096e-05	PS=2.096e-05
+ NRD=0.0173	NRS=0.0173
MXI0/MM4@10	XI0/net4#110	XI0/net7#209	VDD3A#1274	VDD3A	pe3
+ L=1e-05	W=1e-05
+ AD=4.8e-12	AS=4.8e-12	PD=2.096e-05	PS=2.096e-05
+ NRD=0.0173	NRS=0.0173
MXI0/MM3@2	XI0/net3#36	XI0/net7#185	VDD3A#1204	VDD3A	pe3
+ L=1e-05	W=1e-05
+ AD=4.8e-12	AS=4.8e-12	PD=2.096e-05	PS=2.096e-05
+ NRD=0.0173	NRS=0.0173
MXI0/MM36@3	VDD3A#1468	VDD3A#184	VDD3A#1407	VDD3A	pe3
+ L=1e-05	W=1e-05
+ AD=4.8e-12	AS=4.8e-12	PD=2.096e-05	PS=2.096e-05
+ NRD=0.0173	NRS=0.0173
MXI0/MM42@16	VDD3A#1387	VDD3A#170	VDD3A#1326	VDD3A	pe3
+ L=1e-05	W=1e-05
+ AD=4.8e-12	AS=4.8e-12	PD=2.096e-05	PS=2.096e-05
+ NRD=0.0173	NRS=0.0173
MXI0/MM43@18	VDD3A#1306	VDD3A#156	VDD3A#1281	VDD3A	pe3
+ L=1e-05	W=1e-05
+ AD=4.8e-12	AS=4.8e-12	PD=2.096e-05	PS=2.096e-05
+ NRD=0.0173	NRS=0.0173
MXI0/MM5@1	XI0/net5#160	XI0/net7#189	VDD3A#1211	VDD3A	pe3
+ L=1e-05	W=1e-05
+ AD=4.8e-12	AS=4.8e-12	PD=2.096e-05	PS=2.096e-05
+ NRD=0.0173	NRS=0.0173
MXI0/MM4@4	XI0/net4#46	XI0/net7#145	VDD3A#1106	VDD3A	pe3
+ L=1e-05	W=1e-05
+ AD=4.8e-12	AS=4.8e-12	PD=2.096e-05	PS=2.096e-05
+ NRD=0.0173	NRS=0.0173
MXI0/MM4@13	XI0/net4#41	XI0/net7#121	VDD3A#1036	VDD3A	pe3
+ L=1e-05	W=1e-05
+ AD=4.8e-12	AS=4.8e-12	PD=2.096e-05	PS=2.096e-05
+ NRD=0.0173	NRS=0.0173
MXI0/MM5@20	XI0/net5#102	XI0/net7#97	VDD3A#966	VDD3A	pe3
+ L=1e-05	W=1e-05
+ AD=4.8e-12	AS=4.8e-12	PD=2.096e-05	PS=2.096e-05
+ NRD=0.0173	NRS=0.0173
MXI0/MM5@29	XI0/net5#73	XI0/net7#73	VDD3A#896	VDD3A	pe3
+ L=1e-05	W=1e-05
+ AD=4.8e-12	AS=4.8e-12	PD=2.096e-05	PS=2.096e-05
+ NRD=0.0173	NRS=0.0173
MXI0/MM14@3	XI0/net19#67	XI0/net7#149	VDD3A#1113	VDD3A	pe3
+ L=1e-05	W=1e-05
+ AD=4.8e-12	AS=4.8e-12	PD=2.096e-05	PS=2.096e-05
+ NRD=0.0173	NRS=0.0173
MXI0/MM2@3	XI0/net2#11	XI0/net7#125	VDD3A#1043	VDD3A	pe3
+ L=1e-05	W=1e-05
+ AD=4.8e-12	AS=4.8e-12	PD=2.096e-05	PS=2.096e-05
+ NRD=0.0173	NRS=0.0173
MXI0/MM2	XI0/net2	XI0/net7#101	VDD3A#973	VDD3A	pe3
+ L=1e-05	W=1e-05
+ AD=4.8e-12	AS=4.8e-12	PD=2.096e-05	PS=2.096e-05
+ NRD=0.0173	NRS=0.0173
MXI0/MM14@4	XI0/net19#37	XI0/net7#77	VDD3A#903	VDD3A	pe3
+ L=1e-05	W=1e-05
+ AD=4.8e-12	AS=4.8e-12	PD=2.096e-05	PS=2.096e-05
+ NRD=0.0173	NRS=0.0173
MXI0/MM3@5	XI0/net3#21	XI0/net7#153	VDD3A#1120	VDD3A	pe3
+ L=1e-05	W=1e-05
+ AD=4.8e-12	AS=4.8e-12	PD=2.096e-05	PS=2.096e-05
+ NRD=0.0173	NRS=0.0173
MXI0/MM14	XI0/net19#57	XI0/net7#129	VDD3A#1050	VDD3A	pe3
+ L=1e-05	W=1e-05
+ AD=4.8e-12	AS=4.8e-12	PD=2.096e-05	PS=2.096e-05
+ NRD=0.0173	NRS=0.0173
MXI0/MM1@1	XI0/net1#6	XI0/net7#105	VDD3A#980	VDD3A	pe3
+ L=1e-05	W=1e-05
+ AD=4.8e-12	AS=4.8e-12	PD=2.096e-05	PS=2.096e-05
+ NRD=0.0173	NRS=0.0173
MXI0/MM14@9	XI0/net19#42	XI0/net7#81	VDD3A#910	VDD3A	pe3
+ L=1e-05	W=1e-05
+ AD=4.8e-12	AS=4.8e-12	PD=2.096e-05	PS=2.096e-05
+ NRD=0.0173	NRS=0.0173
MXI0/MM14@8	XI0/net19#72	XI0/net7#157	VDD3A#1127	VDD3A	pe3
+ L=1e-05	W=1e-05
+ AD=4.8e-12	AS=4.8e-12	PD=2.096e-05	PS=2.096e-05
+ NRD=0.0173	NRS=0.0173
MXI0/MM0	XI0/net6	XI0/net7#133	VDD3A#1057	VDD3A	pe3
+ L=1e-05	W=1e-05
+ AD=4.8e-12	AS=4.8e-12	PD=2.096e-05	PS=2.096e-05
+ NRD=0.0173	NRS=0.0173
MXI0/MM14@5	XI0/net19#52	XI0/net7#109	VDD3A#987	VDD3A	pe3
+ L=1e-05	W=1e-05
+ AD=4.8e-12	AS=4.8e-12	PD=2.096e-05	PS=2.096e-05
+ NRD=0.0173	NRS=0.0173
MXI0/MM1	XI0/net1	XI0/net7#85	VDD3A#917	VDD3A	pe3
+ L=1e-05	W=1e-05
+ AD=4.8e-12	AS=4.8e-12	PD=2.096e-05	PS=2.096e-05
+ NRD=0.0173	NRS=0.0173
MXI0/MM14@2	XI0/net19#77	XI0/net7#161	VDD3A#1134	VDD3A	pe3
+ L=1e-05	W=1e-05
+ AD=4.8e-12	AS=4.8e-12	PD=2.096e-05	PS=2.096e-05
+ NRD=0.0173	NRS=0.0173
MXI0/MM2@1	XI0/net2#16	XI0/net7#137	VDD3A#1064	VDD3A	pe3
+ L=1e-05	W=1e-05
+ AD=4.8e-12	AS=4.8e-12	PD=2.096e-05	PS=2.096e-05
+ NRD=0.0173	NRS=0.0173
MXI0/MM2@2	XI0/net2#6	XI0/net7#113	VDD3A#994	VDD3A	pe3
+ L=1e-05	W=1e-05
+ AD=4.8e-12	AS=4.8e-12	PD=2.096e-05	PS=2.096e-05
+ NRD=0.0173	NRS=0.0173
MXI0/MM14@7	XI0/net19#47	XI0/net7#89	VDD3A#924	VDD3A	pe3
+ L=1e-05	W=1e-05
+ AD=4.8e-12	AS=4.8e-12	PD=2.096e-05	PS=2.096e-05
+ NRD=0.0173	NRS=0.0173
MXI0/MM5@22	XI0/net5#149	XI0/net7#165	VDD3A#1141	VDD3A	pe3
+ L=1e-05	W=1e-05
+ AD=4.8e-12	AS=4.8e-12	PD=2.096e-05	PS=2.096e-05
+ NRD=0.0173	NRS=0.0173
MXI0/MM14@6	XI0/net19#62	XI0/net7#141	VDD3A#1071	VDD3A	pe3
+ L=1e-05	W=1e-05
+ AD=4.8e-12	AS=4.8e-12	PD=2.096e-05	PS=2.096e-05
+ NRD=0.0173	NRS=0.0173
MXI0/MM4	XI0/net4#36	XI0/net7#117	VDD3A#1001	VDD3A	pe3
+ L=1e-05	W=1e-05
+ AD=4.8e-12	AS=4.8e-12	PD=2.096e-05	PS=2.096e-05
+ NRD=0.0173	NRS=0.0173
MXI0/MM4@7	XI0/net4#31	XI0/net7#93	VDD3A#931	VDD3A	pe3
+ L=1e-05	W=1e-05
+ AD=4.8e-12	AS=4.8e-12	PD=2.096e-05	PS=2.096e-05
+ NRD=0.0173	NRS=0.0173
MXI0/MM5@19	XI0/net5#44	XI0/net7#49	VDD3A#826	VDD3A	pe3
+ L=1e-05	W=1e-05
+ AD=4.8e-12	AS=4.8e-12	PD=2.096e-05	PS=2.096e-05
+ NRD=0.0173	NRS=0.0173
MXI0/MM5@4	XI0/net5#33	XI0/net7#25	VDD3A#756	VDD3A	pe3
+ L=1e-05	W=1e-05
+ AD=4.8e-12	AS=4.8e-12	PD=2.096e-05	PS=2.096e-05
+ NRD=0.0173	NRS=0.0173
MXI0/MM5@6	XI0/net5	XI0/net7	VDD3A#682	VDD3A	pe3
+ L=1e-05	W=1e-05
+ AD=4.8e-12	AS=4.8e-12	PD=2.096e-05	PS=2.096e-05
+ NRD=0.0173	NRS=0.0173
MXI0/MM43@26	VDD3A#640	VDD3A#42	VDD3A#550	VDD3A	pe3
+ L=1e-05	W=1e-05
+ AD=4.8e-12	AS=4.8e-12	PD=2.096e-05	PS=2.096e-05
+ NRD=0.0173	NRS=0.0173
MXI0/MM3@3	XI0/net3	XI0/net7#53	VDD3A#833	VDD3A	pe3
+ L=1e-05	W=1e-05
+ AD=4.8e-12	AS=4.8e-12	PD=2.096e-05	PS=2.096e-05
+ NRD=0.0173	NRS=0.0173
MXI0/MM4@11	XI0/net4	XI0/net7#29	VDD3A#763	VDD3A	pe3
+ L=1e-05	W=1e-05
+ AD=4.8e-12	AS=4.8e-12	PD=2.096e-05	PS=2.096e-05
+ NRD=0.0173	NRS=0.0173
MXI0/MM5@3	XI0/net5#6	XI0/net7#5	VDD3A#692	VDD3A	pe3
+ L=1e-05	W=1e-05
+ AD=4.8e-12	AS=4.8e-12	PD=2.096e-05	PS=2.096e-05
+ NRD=0.0173	NRS=0.0173
MXI0/MM43@29	VDD3A#645	VDD3A#46	VDD3A#556	VDD3A	pe3
+ L=1e-05	W=1e-05
+ AD=4.8e-12	AS=4.8e-12	PD=2.096e-05	PS=2.096e-05
+ NRD=0.0173	NRS=0.0173
MXI0/MM3@4	XI0/net3#6	XI0/net7#57	VDD3A#840	VDD3A	pe3
+ L=1e-05	W=1e-05
+ AD=4.8e-12	AS=4.8e-12	PD=2.096e-05	PS=2.096e-05
+ NRD=0.0173	NRS=0.0173
MXI0/MM4@6	XI0/net4#6	XI0/net7#33	VDD3A#770	VDD3A	pe3
+ L=1e-05	W=1e-05
+ AD=4.8e-12	AS=4.8e-12	PD=2.096e-05	PS=2.096e-05
+ NRD=0.0173	NRS=0.0173
MXI0/MM5@21	XI0/net5#11	XI0/net7#9	VDD3A#699	VDD3A	pe3
+ L=1e-05	W=1e-05
+ AD=4.8e-12	AS=4.8e-12	PD=2.096e-05	PS=2.096e-05
+ NRD=0.0173	NRS=0.0173
MXI0/MM36@2	VDD3A#650	VDD3A#50	VDD3A#562	VDD3A	pe3
+ L=1e-05	W=1e-05
+ AD=4.8e-12	AS=4.8e-12	PD=2.096e-05	PS=2.096e-05
+ NRD=0.0173	NRS=0.0173
MXI0/MM3@7	XI0/net3#11	XI0/net7#61	VDD3A#847	VDD3A	pe3
+ L=1e-05	W=1e-05
+ AD=4.8e-12	AS=4.8e-12	PD=2.096e-05	PS=2.096e-05
+ NRD=0.0173	NRS=0.0173
MXI0/MM4@5	XI0/net4#11	XI0/net7#37	VDD3A#777	VDD3A	pe3
+ L=1e-05	W=1e-05
+ AD=4.8e-12	AS=4.8e-12	PD=2.096e-05	PS=2.096e-05
+ NRD=0.0173	NRS=0.0173
MXI0/MM5@5	XI0/net5#29	XI0/net7#13	VDD3A#706	VDD3A	pe3
+ L=1e-05	W=1e-05
+ AD=4.8e-12	AS=4.8e-12	PD=2.096e-05	PS=2.096e-05
+ NRD=0.0173	NRS=0.0173
MXI0/MM43@28	VDD3A#672	VDD3A#54	VDD3A#568	VDD3A	pe3
+ L=1e-05	W=1e-05
+ AD=4.8e-12	AS=4.8e-12	PD=2.096e-05	PS=2.096e-05
+ NRD=0.0173	NRS=0.0173
MXI0/MM3	XI0/net3#16	XI0/net7#65	VDD3A#854	VDD3A	pe3
+ L=1e-05	W=1e-05
+ AD=4.8e-12	AS=4.8e-12	PD=2.096e-05	PS=2.096e-05
+ NRD=0.0173	NRS=0.0173
MXI0/MM4@15	XI0/net4#16	XI0/net7#41	VDD3A#784	VDD3A	pe3
+ L=1e-05	W=1e-05
+ AD=4.8e-12	AS=4.8e-12	PD=2.096e-05	PS=2.096e-05
+ NRD=0.0173	NRS=0.0173
MXI0/MM5@24	XI0/net5#16	XI0/net7#17	VDD3A#713	VDD3A	pe3
+ L=1e-05	W=1e-05
+ AD=4.8e-12	AS=4.8e-12	PD=2.096e-05	PS=2.096e-05
+ NRD=0.0173	NRS=0.0173
MXI0/MM43@27	VDD3A#655	VDD3A#58	VDD3A#574	VDD3A	pe3
+ L=1e-05	W=1e-05
+ AD=4.8e-12	AS=4.8e-12	PD=2.096e-05	PS=2.096e-05
+ NRD=0.0173	NRS=0.0173
MXI0/MM4@8	XI0/net4#26	XI0/net7#69	VDD3A#861	VDD3A	pe3
+ L=1e-05	W=1e-05
+ AD=4.8e-12	AS=4.8e-12	PD=2.096e-05	PS=2.096e-05
+ NRD=0.0173	NRS=0.0173
MXI0/MM4@1	XI0/net4#21	XI0/net7#45	VDD3A#791	VDD3A	pe3
+ L=1e-05	W=1e-05
+ AD=4.8e-12	AS=4.8e-12	PD=2.096e-05	PS=2.096e-05
+ NRD=0.0173	NRS=0.0173
MXI0/MM5@23	XI0/net5#21	XI0/net7#21	VDD3A#720	VDD3A	pe3
+ L=1e-05	W=1e-05
+ AD=4.8e-12	AS=4.8e-12	PD=2.096e-05	PS=2.096e-05
+ NRD=0.0173	NRS=0.0173
MXI0/MM42@10	VDD3A#660	VDD3A#62	VDD3A#580	VDD3A	pe3
+ L=1e-05	W=1e-05
+ AD=4.8e-12	AS=4.8e-12	PD=2.096e-05	PS=2.096e-05
+ NRD=0.0173	NRS=0.0173
MXI0/MM22@2	XI0/net7#396	XI0/net12#49	VDD3A#496	VDD3A	pe3
+ L=1e-05	W=1e-05
+ AD=4.8e-12	AS=4.8e-12	PD=2.096e-05	PS=2.096e-05
+ NRD=0.0173	NRS=0.0173
MXI0/MM23@1	XI0/net12#216	XI0/net12#41	VDD3A#475	VDD3A	pe3
+ L=1e-05	W=1e-05
+ AD=4.8e-12	AS=4.8e-12	PD=2.096e-05	PS=2.096e-05
+ NRD=0.0173	NRS=0.0173
MXI0/MM22@6	XI0/net7#376	XI0/net12#33	VDD3A#465	VDD3A	pe3
+ L=1e-05	W=1e-05
+ AD=4.8e-12	AS=4.8e-12	PD=2.096e-05	PS=2.096e-05
+ NRD=0.0173	NRS=0.0173
MXI0/MM23@7	XI0/net12#166	XI0/net12#25	VDD3A#455	VDD3A	pe3
+ L=1e-05	W=1e-05
+ AD=4.8e-12	AS=4.8e-12	PD=2.096e-05	PS=2.096e-05
+ NRD=0.0173	NRS=0.0173
MXI0/MM22@4	XI0/net7#340	XI0/net12#17	VDD3A#437	VDD3A	pe3
+ L=1e-05	W=1e-05
+ AD=4.8e-12	AS=4.8e-12	PD=2.096e-05	PS=2.096e-05
+ NRD=0.0173	NRS=0.0173
MXI0/MM23@3	XI0/net12#108	XI0/net12#9	VDD3A#427	VDD3A	pe3
+ L=1e-05	W=1e-05
+ AD=4.8e-12	AS=4.8e-12	PD=2.096e-05	PS=2.096e-05
+ NRD=0.0173	NRS=0.0173
MXI0/MM22@7	XI0/net7#300	XI0/net12	VDD3A#416	VDD3A	pe3
+ L=1e-05	W=1e-05
+ AD=4.8e-12	AS=4.8e-12	PD=2.096e-05	PS=2.096e-05
+ NRD=0.0173	NRS=0.0173
MXI0/MM43@16	VDD3A#404	VDD3A#21	VDD3A#386	VDD3A	pe3
+ L=1e-05	W=1e-05
+ AD=4.8e-12	AS=4.8e-12	PD=2.096e-05	PS=2.096e-05
+ NRD=0.0173	NRS=0.0173
MXI0/MM42@9	VDD3A#1748	VDD3A#223	VDD3A#1641	VDD3A	pe3
+ L=1e-05	W=2e-06
+ AD=9.6e-13	AS=9.6e-13	PD=4.96e-06	PS=4.96e-06
+ NRD=0.0865	NRS=0.0865
MXI0/MM42@8	VDD3A#1789	VDD3A#252	VDD3A#1645	VDD3A	pe3
+ L=1e-05	W=2e-06
+ AD=9.6e-13	AS=9.6e-13	PD=4.96e-06	PS=4.96e-06
+ NRD=0.0865	NRS=0.0865
MXI0/MM42@4	VDD3A#1626	VDD3A#209	VDD3A#1560	VDD3A	pe3
+ L=1e-05	W=2e-06
+ AD=9.6e-13	AS=9.6e-13	PD=4.96e-06	PS=4.96e-06
+ NRD=0.0865	NRS=0.0865
MXI0/MM36	VDD3A#1635	VDD3A#218	VDD3A#1564	VDD3A	pe3
+ L=1e-05	W=2e-06
+ AD=9.6e-13	AS=9.6e-13	PD=4.96e-06	PS=4.96e-06
+ NRD=0.0865	NRS=0.0865
MXI0/MM42	VDD3A#1545	VDD3A#195	VDD3A#1479	VDD3A	pe3
+ L=1e-05	W=2e-06
+ AD=9.6e-13	AS=9.6e-13	PD=4.96e-06	PS=4.96e-06
+ NRD=0.0865	NRS=0.0865
MXI0/MM42@6	VDD3A#1554	VDD3A#204	VDD3A#1483	VDD3A	pe3
+ L=1e-05	W=2e-06
+ AD=9.6e-13	AS=9.6e-13	PD=4.96e-06	PS=4.96e-06
+ NRD=0.0865	NRS=0.0865
MXI0/MM43@13	VDD3A#1464	VDD3A#181	VDD3A#1398	VDD3A	pe3
+ L=1e-05	W=2e-06
+ AD=9.6e-13	AS=9.6e-13	PD=4.96e-06	PS=4.96e-06
+ NRD=0.0865	NRS=0.0865
MXI0/MM43@11	VDD3A#1473	VDD3A#190	VDD3A#1402	VDD3A	pe3
+ L=1e-05	W=2e-06
+ AD=9.6e-13	AS=9.6e-13	PD=4.96e-06	PS=4.96e-06
+ NRD=0.0865	NRS=0.0865
MXI0/MM42@3	VDD3A#1383	VDD3A#167	VDD3A#1317	VDD3A	pe3
+ L=1e-05	W=2e-06
+ AD=9.6e-13	AS=9.6e-13	PD=4.96e-06	PS=4.96e-06
+ NRD=0.0865	NRS=0.0865
MXI0/MM43	VDD3A#1392	VDD3A#176	VDD3A#1321	VDD3A	pe3
+ L=1e-05	W=2e-06
+ AD=9.6e-13	AS=9.6e-13	PD=4.96e-06	PS=4.96e-06
+ NRD=0.0865	NRS=0.0865
MXI0/MM42@5	VDD3A#1302	VDD3A#153	VDD3A#1236	VDD3A	pe3
+ L=1e-05	W=2e-06
+ AD=9.6e-13	AS=9.6e-13	PD=4.96e-06	PS=4.96e-06
+ NRD=0.0865	NRS=0.0865
MXI0/MM43@12	VDD3A#1311	VDD3A#162	VDD3A#1240	VDD3A	pe3
+ L=1e-05	W=2e-06
+ AD=9.6e-13	AS=9.6e-13	PD=4.96e-06	PS=4.96e-06
+ NRD=0.0865	NRS=0.0865
MXI0/MM43@14	VDD3A#1226	VDD3A#143	VDD3A#1166	VDD3A	pe3
+ L=1e-05	W=2e-06
+ AD=9.6e-13	AS=9.6e-13	PD=4.96e-06	PS=4.96e-06
+ NRD=0.0865	NRS=0.0865
MXI0/MM43@10	VDD3A#1230	VDD3A#148	VDD3A#1170	VDD3A	pe3
+ L=1e-05	W=2e-06
+ AD=9.6e-13	AS=9.6e-13	PD=4.96e-06	PS=4.96e-06
+ NRD=0.0865	NRS=0.0865
MXI0/MM43@9	VDD3A#1156	VDD3A#133	VDD3A#1096	VDD3A	pe3
+ L=1e-05	W=2e-06
+ AD=9.6e-13	AS=9.6e-13	PD=4.96e-06	PS=4.96e-06
+ NRD=0.0865	NRS=0.0865
MXI0/MM42@2	VDD3A#1160	VDD3A#138	VDD3A#1100	VDD3A	pe3
+ L=1e-05	W=2e-06
+ AD=9.6e-13	AS=9.6e-13	PD=4.96e-06	PS=4.96e-06
+ NRD=0.0865	NRS=0.0865
MXI0/MM43@6	VDD3A#1086	VDD3A#123	VDD3A#1026	VDD3A	pe3
+ L=1e-05	W=2e-06
+ AD=9.6e-13	AS=9.6e-13	PD=4.96e-06	PS=4.96e-06
+ NRD=0.0865	NRS=0.0865
MXI0/MM42@1	VDD3A#1090	VDD3A#128	VDD3A#1030	VDD3A	pe3
+ L=1e-05	W=2e-06
+ AD=9.6e-13	AS=9.6e-13	PD=4.96e-06	PS=4.96e-06
+ NRD=0.0865	NRS=0.0865
MXI0/MM42@14	VDD3A#1016	VDD3A#113	VDD3A#956	VDD3A	pe3
+ L=1e-05	W=2e-06
+ AD=9.6e-13	AS=9.6e-13	PD=4.96e-06	PS=4.96e-06
+ NRD=0.0865	NRS=0.0865
MXI0/MM42@15	VDD3A#1020	VDD3A#118	VDD3A#960	VDD3A	pe3
+ L=1e-05	W=2e-06
+ AD=9.6e-13	AS=9.6e-13	PD=4.96e-06	PS=4.96e-06
+ NRD=0.0865	NRS=0.0865
MXI0/MM43@25	VDD3A#946	VDD3A#103	VDD3A#886	VDD3A	pe3
+ L=1e-05	W=2e-06
+ AD=9.6e-13	AS=9.6e-13	PD=4.96e-06	PS=4.96e-06
+ NRD=0.0865	NRS=0.0865
MXI0/MM43@24	VDD3A#950	VDD3A#108	VDD3A#890	VDD3A	pe3
+ L=1e-05	W=2e-06
+ AD=9.6e-13	AS=9.6e-13	PD=4.96e-06	PS=4.96e-06
+ NRD=0.0865	NRS=0.0865
MXI0/MM43@2	VDD3A#876	VDD3A#93	VDD3A#816	VDD3A	pe3
+ L=1e-05	W=2e-06
+ AD=9.6e-13	AS=9.6e-13	PD=4.96e-06	PS=4.96e-06
+ NRD=0.0865	NRS=0.0865
MXI0/MM43@1	VDD3A#880	VDD3A#98	VDD3A#820	VDD3A	pe3
+ L=1e-05	W=2e-06
+ AD=9.6e-13	AS=9.6e-13	PD=4.96e-06	PS=4.96e-06
+ NRD=0.0865	NRS=0.0865
MXI0/MM43@4	VDD3A#806	VDD3A#83	VDD3A#746	VDD3A	pe3
+ L=1e-05	W=2e-06
+ AD=9.6e-13	AS=9.6e-13	PD=4.96e-06	PS=4.96e-06
+ NRD=0.0865	NRS=0.0865
MXI0/MM43@8	VDD3A#810	VDD3A#88	VDD3A#750	VDD3A	pe3
+ L=1e-05	W=2e-06
+ AD=9.6e-13	AS=9.6e-13	PD=4.96e-06	PS=4.96e-06
+ NRD=0.0865	NRS=0.0865
MXI0/MM43@7	VDD3A#736	VDD3A#73	VDD3A#678	VDD3A	pe3
+ L=1e-05	W=2e-06
+ AD=9.6e-13	AS=9.6e-13	PD=4.96e-06	PS=4.96e-06
+ NRD=0.0865	NRS=0.0865
MXI0/MM42@7	VDD3A#740	VDD3A#78	VDD3A#687	VDD3A	pe3
+ L=1e-05	W=2e-06
+ AD=9.6e-13	AS=9.6e-13	PD=4.96e-06	PS=4.96e-06
+ NRD=0.0865	NRS=0.0865
MXI0/MM43@5	VDD3A#636	VDD3A#39	VDD3A#545	VDD3A	pe3
+ L=1e-05	W=2e-06
+ AD=9.6e-13	AS=9.6e-13	PD=4.96e-06	PS=4.96e-06
+ NRD=0.0865	NRS=0.0865
MXI0/MM43@3	VDD3A#665	VDD3A#68	VDD3A#586	VDD3A	pe3
+ L=1e-05	W=2e-06
+ AD=9.6e-13	AS=9.6e-13	PD=4.96e-06	PS=4.96e-06
+ NRD=0.0865	NRS=0.0865
MXI0/MM15	GNDA#247	D<0>#5	XI0/net6#6	VDD3A	pe3
+ L=3.5e-07	W=1e-05
+ AD=2.7e-12	AS=4.8e-12	PD=1.054e-05	PS=2.096e-05
+ NRD=0.0173	NRS=0.0173
MXI0/MM15@1	GNDA#247	D<0>#2	XI0/net6#10	VDD3A	pe3
+ L=3.5e-07	W=1e-05
+ AD=2.7e-12	AS=4.8e-12	PD=1.054e-05	PS=2.096e-05
+ NRD=0.0173	NRS=0.0173
MXI0/MM16	GNDA#243	D<1>#5	XI0/net1#11	VDD3A	pe3
+ L=3.5e-07	W=1e-05
+ AD=2.7e-12	AS=4.8e-12	PD=1.054e-05	PS=2.096e-05
+ NRD=0.0173	NRS=0.0173
MXI0/MM16@1	GNDA#243	D<1>#2	XI0/net1#15	VDD3A	pe3
+ L=3.5e-07	W=1e-05
+ AD=2.7e-12	AS=4.8e-12	PD=1.054e-05	PS=2.096e-05
+ NRD=0.0173	NRS=0.0173
MXI0/MM17@1	GNDA#239	D<2>#5	XI0/net2#21	VDD3A	pe3
+ L=3.5e-07	W=1e-05
+ AD=2.7e-12	AS=4.8e-12	PD=1.054e-05	PS=2.096e-05
+ NRD=0.0173	NRS=0.0173
MXI0/MM17	GNDA#239	D<2>#2	XI0/net2#25	VDD3A	pe3
+ L=3.5e-07	W=1e-05
+ AD=2.7e-12	AS=4.8e-12	PD=1.054e-05	PS=2.096e-05
+ NRD=0.0173	NRS=0.0173
MXI0/MM18	GNDA#235	D<3>#5	XI0/net3#41	VDD3A	pe3
+ L=3.5e-07	W=1e-05
+ AD=2.7e-12	AS=4.8e-12	PD=1.054e-05	PS=2.096e-05
+ NRD=0.0173	NRS=0.0173
MXI0/MM18@1	GNDA#235	D<3>#2	XI0/net3#45	VDD3A	pe3
+ L=3.5e-07	W=1e-05
+ AD=2.7e-12	AS=4.8e-12	PD=1.054e-05	PS=2.096e-05
+ NRD=0.0173	NRS=0.0173
MXI0/MM19	GNDA#231	D<4>#5	XI0/net4#91	VDD3A	pe3
+ L=3.5e-07	W=1e-05
+ AD=2.7e-12	AS=4.8e-12	PD=1.054e-05	PS=2.096e-05
+ NRD=0.0173	NRS=0.0173
MXI0/MM19@1	GNDA#231	D<4>#2	XI0/net4#51	VDD3A	pe3
+ L=3.5e-07	W=1e-05
+ AD=2.7e-12	AS=4.8e-12	PD=1.054e-05	PS=2.096e-05
+ NRD=0.0173	NRS=0.0173
MXI0/MM20	GNDA#226	D<5>#5	XI0/net5#165	VDD3A	pe3
+ L=3.5e-07	W=1e-05
+ AD=2.7e-12	AS=4.8e-12	PD=1.054e-05	PS=2.096e-05
+ NRD=0.0173	NRS=0.0173
MXI0/MM20@1	GNDA#226	D<5>#2	XI0/net5#169	VDD3A	pe3
+ L=3.5e-07	W=1e-05
+ AD=2.7e-12	AS=4.8e-12	PD=1.054e-05	PS=2.096e-05
+ NRD=0.0173	NRS=0.0173
MXI0/MM35	XI0/EN#27	ENABLE#6	VDD3A	VDD3A	pe3	L=3e-07
+ W=6e-06
+ AD=2.88e-12	AS=2.88e-12	PD=1.296e-05	PS=1.296e-05
+ NRD=0.0288333	NRS=0.0288333
MXI0/MM29	XI0/net30#228	XI0/net30#4	XI0/net10#11	XI0/net10
+ pe3	L=2e-05	W=1e-05
+ AD=4.8e-12	AS=4.8e-12	PD=2.096e-05	PS=2.096e-05
+ NRD=0.0173	NRS=0.0173
MXI0/MM30	XI0/net34#9	XI0/net34#4	XI0/net30#235	XI0/net30
+ pe3	L=2e-05	W=1e-05
+ AD=4.8e-12	AS=4.8e-12	PD=2.096e-05	PS=2.096e-05
+ NRD=0.0173	NRS=0.0173
MXI0/MM31	GNDA#217	GNDA#18	XI0/net34#16	XI0/net34
+ pe3	L=2e-05	W=1e-05
+ AD=4.8e-12	AS=4.8e-12	PD=2.096e-05	PS=2.096e-05
+ NRD=0.0173	NRS=0.0173
MXI0/MM21@2	XI0/net14#120	XI0/net30#7	XI0/net19#4	VDD3A	pe3
+ L=1e-06	W=1e-05
+ AD=2.7e-12	AS=4.8e-12	PD=1.054e-05	PS=2.096e-05
+ NRD=0.0173	NRS=0.0173
MXI0/MM21@7	XI0/net14#120	XI0/net30#10	XI0/net19#10	VDD3A	pe3
+ L=1e-06	W=1e-05
+ AD=2.7e-12	AS=2.7e-12	PD=1.054e-05	PS=1.054e-05
+ NRD=0.0173	NRS=0.0173
MXI0/MM21	XI0/net14#126	XI0/net30#13	XI0/net19#10	VDD3A	pe3
+ L=1e-06	W=1e-05
+ AD=2.7e-12	AS=2.7e-12	PD=1.054e-05	PS=1.054e-05
+ NRD=0.0173	NRS=0.0173
MXI0/MM21@5	XI0/net14#126	XI0/net30#16	XI0/net19#16	VDD3A	pe3
+ L=1e-06	W=1e-05
+ AD=2.7e-12	AS=2.7e-12	PD=1.054e-05	PS=1.054e-05
+ NRD=0.0173	NRS=0.0173
MXI0/MM21@6	XI0/net14#132	XI0/net30#19	XI0/net19#16	VDD3A	pe3
+ L=1e-06	W=1e-05
+ AD=2.7e-12	AS=2.7e-12	PD=1.054e-05	PS=1.054e-05
+ NRD=0.0173	NRS=0.0173
MXI0/MM21@8	XI0/net14#132	XI0/net30#22	XI0/net19#22	VDD3A	pe3
+ L=1e-06	W=1e-05
+ AD=2.7e-12	AS=2.7e-12	PD=1.054e-05	PS=1.054e-05
+ NRD=0.0173	NRS=0.0173
MXI0/MM21@9	XI0/net14#138	XI0/net30#25	XI0/net19#22	VDD3A	pe3
+ L=1e-06	W=1e-05
+ AD=2.7e-12	AS=2.7e-12	PD=1.054e-05	PS=1.054e-05
+ NRD=0.0173	NRS=0.0173
MXI0/MM21@1	XI0/net14#138	XI0/net30#28	XI0/net19#28	VDD3A	pe3
+ L=1e-06	W=1e-05
+ AD=2.7e-12	AS=2.7e-12	PD=1.054e-05	PS=1.054e-05
+ NRD=0.0173	NRS=0.0173
MXI0/MM21@3	XI0/net14#144	XI0/net30#31	XI0/net19#28	VDD3A	pe3
+ L=1e-06	W=1e-05
+ AD=2.7e-12	AS=2.7e-12	PD=1.054e-05	PS=1.054e-05
+ NRD=0.0173	NRS=0.0173
MXI0/MM21@4	XI0/net14#144	XI0/net30#34	XI0/net19#34	VDD3A	pe3
+ L=1e-06	W=1e-05
+ AD=2.7e-12	AS=4.8e-12	PD=1.054e-05	PS=2.096e-05
+ NRD=0.0173	NRS=0.0173
MXI0/MM11@30	VDAC#72	XI0/net30#37	XI0/net5#41	VDD3A	pe3
+ L=1e-06	W=1e-05
+ AD=2.7e-12	AS=4.8e-12	PD=1.054e-05	PS=2.096e-05
+ NRD=0.0173	NRS=0.0173
MXI0/MM11@11	VDAC#72	XI0/net30#40	XI0/net5#52	VDD3A	pe3
+ L=1e-06	W=1e-05
+ AD=2.7e-12	AS=2.7e-12	PD=1.054e-05	PS=1.054e-05
+ NRD=0.0173	NRS=0.0173
MXI0/MM11@12	VDAC#78	XI0/net30#43	XI0/net5#52	VDD3A	pe3
+ L=1e-06	W=1e-05
+ AD=2.7e-12	AS=2.7e-12	PD=1.054e-05	PS=1.054e-05
+ NRD=0.0173	NRS=0.0173
MXI0/MM11@13	VDAC#78	XI0/net30#46	XI0/net5#58	VDD3A	pe3
+ L=1e-06	W=1e-05
+ AD=2.7e-12	AS=2.7e-12	PD=1.054e-05	PS=1.054e-05
+ NRD=0.0173	NRS=0.0173
MXI0/MM11@26	VDAC#84	XI0/net30#49	XI0/net5#58	VDD3A	pe3
+ L=1e-06	W=1e-05
+ AD=2.7e-12	AS=2.7e-12	PD=1.054e-05	PS=1.054e-05
+ NRD=0.0173	NRS=0.0173
MXI0/MM11@15	VDAC#84	XI0/net30#52	XI0/net5#64	VDD3A	pe3
+ L=1e-06	W=1e-05
+ AD=2.7e-12	AS=2.7e-12	PD=1.054e-05	PS=1.054e-05
+ NRD=0.0173	NRS=0.0173
MXI0/MM11@8	VDAC#90	XI0/net30#55	XI0/net5#64	VDD3A	pe3
+ L=1e-06	W=1e-05
+ AD=2.7e-12	AS=2.7e-12	PD=1.054e-05	PS=1.054e-05
+ NRD=0.0173	NRS=0.0173
MXI0/MM11@9	VDAC#90	XI0/net30#58	XI0/net5#70	VDD3A	pe3
+ L=1e-06	W=1e-05
+ AD=2.7e-12	AS=2.7e-12	PD=1.054e-05	PS=1.054e-05
+ NRD=0.0173	NRS=0.0173
MXI0/MM11@2	VDAC#96	XI0/net30#61	XI0/net5#70	VDD3A	pe3
+ L=1e-06	W=1e-05
+ AD=2.7e-12	AS=2.7e-12	PD=1.054e-05	PS=1.054e-05
+ NRD=0.0173	NRS=0.0173
MXI0/MM11@1	VDAC#96	XI0/net30#64	XI0/net5#81	VDD3A	pe3
+ L=1e-06	W=1e-05
+ AD=2.7e-12	AS=2.7e-12	PD=1.054e-05	PS=1.054e-05
+ NRD=0.0173	NRS=0.0173
MXI0/MM11	VDAC#102	XI0/net30#67	XI0/net5#81	VDD3A	pe3
+ L=1e-06	W=1e-05
+ AD=2.7e-12	AS=2.7e-12	PD=1.054e-05	PS=1.054e-05
+ NRD=0.0173	NRS=0.0173
MXI0/MM11@7	VDAC#102	XI0/net30#70	XI0/net5#87	VDD3A	pe3
+ L=1e-06	W=1e-05
+ AD=2.7e-12	AS=2.7e-12	PD=1.054e-05	PS=1.054e-05
+ NRD=0.0173	NRS=0.0173
MXI0/MM11@14	VDAC#108	XI0/net30#73	XI0/net5#87	VDD3A	pe3
+ L=1e-06	W=1e-05
+ AD=2.7e-12	AS=2.7e-12	PD=1.054e-05	PS=1.054e-05
+ NRD=0.0173	NRS=0.0173
MXI0/MM11@10	VDAC#108	XI0/net30#76	XI0/net5#93	VDD3A	pe3
+ L=1e-06	W=1e-05
+ AD=2.7e-12	AS=2.7e-12	PD=1.054e-05	PS=1.054e-05
+ NRD=0.0173	NRS=0.0173
MXI0/MM11@4	VDAC#114	XI0/net30#79	XI0/net5#93	VDD3A	pe3
+ L=1e-06	W=1e-05
+ AD=2.7e-12	AS=2.7e-12	PD=1.054e-05	PS=1.054e-05
+ NRD=0.0173	NRS=0.0173
MXI0/MM11@3	VDAC#114	XI0/net30#82	XI0/net5#99	VDD3A	pe3
+ L=1e-06	W=1e-05
+ AD=2.7e-12	AS=2.7e-12	PD=1.054e-05	PS=1.054e-05
+ NRD=0.0173	NRS=0.0173
MXI0/MM11@17	VDAC#120	XI0/net30#85	XI0/net5#99	VDD3A	pe3
+ L=1e-06	W=1e-05
+ AD=2.7e-12	AS=2.7e-12	PD=1.054e-05	PS=1.054e-05
+ NRD=0.0173	NRS=0.0173
MXI0/MM11@21	VDAC#120	XI0/net30#88	XI0/net5#110	VDD3A	pe3
+ L=1e-06	W=1e-05
+ AD=2.7e-12	AS=2.7e-12	PD=1.054e-05	PS=1.054e-05
+ NRD=0.0173	NRS=0.0173
MXI0/MM11@19	VDAC#126	XI0/net30#91	XI0/net5#110	VDD3A	pe3
+ L=1e-06	W=1e-05
+ AD=2.7e-12	AS=2.7e-12	PD=1.054e-05	PS=1.054e-05
+ NRD=0.0173	NRS=0.0173
MXI0/MM11@16	VDAC#126	XI0/net30#94	XI0/net5#116	VDD3A	pe3
+ L=1e-06	W=1e-05
+ AD=2.7e-12	AS=2.7e-12	PD=1.054e-05	PS=1.054e-05
+ NRD=0.0173	NRS=0.0173
MXI0/MM11@22	VDAC#132	XI0/net30#97	XI0/net5#116	VDD3A	pe3
+ L=1e-06	W=1e-05
+ AD=2.7e-12	AS=2.7e-12	PD=1.054e-05	PS=1.054e-05
+ NRD=0.0173	NRS=0.0173
MXI0/MM11@31	VDAC#132	XI0/net30#100	XI0/net5#122	VDD3A	pe3
+ L=1e-06	W=1e-05
+ AD=2.7e-12	AS=2.7e-12	PD=1.054e-05	PS=1.054e-05
+ NRD=0.0173	NRS=0.0173
MXI0/MM11@20	VDAC#138	XI0/net30#103	XI0/net5#122	VDD3A	pe3
+ L=1e-06	W=1e-05
+ AD=2.7e-12	AS=2.7e-12	PD=1.054e-05	PS=1.054e-05
+ NRD=0.0173	NRS=0.0173
MXI0/MM11@27	VDAC#138	XI0/net30#106	XI0/net5#128	VDD3A	pe3
+ L=1e-06	W=1e-05
+ AD=2.7e-12	AS=2.7e-12	PD=1.054e-05	PS=1.054e-05
+ NRD=0.0173	NRS=0.0173
MXI0/MM11@24	VDAC#144	XI0/net30#109	XI0/net5#128	VDD3A	pe3
+ L=1e-06	W=1e-05
+ AD=2.7e-12	AS=2.7e-12	PD=1.054e-05	PS=1.054e-05
+ NRD=0.0173	NRS=0.0173
MXI0/MM11@5	VDAC#144	XI0/net30#112	XI0/net5#134	VDD3A	pe3
+ L=1e-06	W=1e-05
+ AD=2.7e-12	AS=2.7e-12	PD=1.054e-05	PS=1.054e-05
+ NRD=0.0173	NRS=0.0173
MXI0/MM11@6	VDAC#150	XI0/net30#115	XI0/net5#134	VDD3A	pe3
+ L=1e-06	W=1e-05
+ AD=2.7e-12	AS=2.7e-12	PD=1.054e-05	PS=1.054e-05
+ NRD=0.0173	NRS=0.0173
MXI0/MM11@18	VDAC#150	XI0/net30#118	XI0/net5#140	VDD3A	pe3
+ L=1e-06	W=1e-05
+ AD=2.7e-12	AS=2.7e-12	PD=1.054e-05	PS=1.054e-05
+ NRD=0.0173	NRS=0.0173
MXI0/MM11@23	VDAC#156	XI0/net30#121	XI0/net5#140	VDD3A	pe3
+ L=1e-06	W=1e-05
+ AD=2.7e-12	AS=2.7e-12	PD=1.054e-05	PS=1.054e-05
+ NRD=0.0173	NRS=0.0173
MXI0/MM11@29	VDAC#156	XI0/net30#124	XI0/net5#146	VDD3A	pe3
+ L=1e-06	W=1e-05
+ AD=2.7e-12	AS=2.7e-12	PD=1.054e-05	PS=1.054e-05
+ NRD=0.0173	NRS=0.0173
MXI0/MM11@28	VDAC#162	XI0/net30#127	XI0/net5#146	VDD3A	pe3
+ L=1e-06	W=1e-05
+ AD=2.7e-12	AS=2.7e-12	PD=1.054e-05	PS=1.054e-05
+ NRD=0.0173	NRS=0.0173
MXI0/MM11@25	VDAC#162	XI0/net30#130	XI0/net5#157	VDD3A	pe3
+ L=1e-06	W=1e-05
+ AD=2.7e-12	AS=4.8e-12	PD=1.054e-05	PS=2.096e-05
+ NRD=0.0173	NRS=0.0173
MXI0/MM10@7	VDAC#168	XI0/net30#133	XI0/net4#54	VDD3A	pe3
+ L=1e-06	W=1e-05
+ AD=2.7e-12	AS=4.8e-12	PD=1.054e-05	PS=2.096e-05
+ NRD=0.0173	NRS=0.0173
MXI0/MM10@5	VDAC#168	XI0/net30#136	XI0/net4#60	VDD3A	pe3
+ L=1e-06	W=1e-05
+ AD=2.7e-12	AS=2.7e-12	PD=1.054e-05	PS=1.054e-05
+ NRD=0.0173	NRS=0.0173
MXI0/MM10@12	VDAC#174	XI0/net30#139	XI0/net4#60	VDD3A	pe3
+ L=1e-06	W=1e-05
+ AD=2.7e-12	AS=2.7e-12	PD=1.054e-05	PS=1.054e-05
+ NRD=0.0173	NRS=0.0173
MXI0/MM10@8	VDAC#174	XI0/net30#142	XI0/net4#76	VDD3A	pe3
+ L=1e-06	W=1e-05
+ AD=2.7e-12	AS=2.7e-12	PD=1.054e-05	PS=1.054e-05
+ NRD=0.0173	NRS=0.0173
MXI0/MM10@4	VDAC#180	XI0/net30#145	XI0/net4#76	VDD3A	pe3
+ L=1e-06	W=1e-05
+ AD=2.7e-12	AS=2.7e-12	PD=1.054e-05	PS=1.054e-05
+ NRD=0.0173	NRS=0.0173
MXI0/MM10@3	VDAC#180	XI0/net30#148	XI0/net4#82	VDD3A	pe3
+ L=1e-06	W=1e-05
+ AD=2.7e-12	AS=2.7e-12	PD=1.054e-05	PS=1.054e-05
+ NRD=0.0173	NRS=0.0173
MXI0/MM10@11	VDAC#186	XI0/net30#151	XI0/net4#82	VDD3A	pe3
+ L=1e-06	W=1e-05
+ AD=2.7e-12	AS=2.7e-12	PD=1.054e-05	PS=1.054e-05
+ NRD=0.0173	NRS=0.0173
MXI0/MM10@13	VDAC#186	XI0/net30#154	XI0/net4#88	VDD3A	pe3
+ L=1e-06	W=1e-05
+ AD=2.7e-12	AS=2.7e-12	PD=1.054e-05	PS=1.054e-05
+ NRD=0.0173	NRS=0.0173
MXI0/MM10@1	VDAC#192	XI0/net30#157	XI0/net4#88	VDD3A	pe3
+ L=1e-06	W=1e-05
+ AD=2.7e-12	AS=2.7e-12	PD=1.054e-05	PS=1.054e-05
+ NRD=0.0173	NRS=0.0173
MXI0/MM10@2	VDAC#192	XI0/net30#160	XI0/net4#122	VDD3A	pe3
+ L=1e-06	W=1e-05
+ AD=2.7e-12	AS=2.7e-12	PD=1.054e-05	PS=1.054e-05
+ NRD=0.0173	NRS=0.0173
MXI0/MM10	VDAC#198	XI0/net30#163	XI0/net4#122	VDD3A	pe3
+ L=1e-06	W=1e-05
+ AD=2.7e-12	AS=2.7e-12	PD=1.054e-05	PS=1.054e-05
+ NRD=0.0173	NRS=0.0173
MXI0/MM10@10	VDAC#198	XI0/net30#166	XI0/net4#128	VDD3A	pe3
+ L=1e-06	W=1e-05
+ AD=2.7e-12	AS=2.7e-12	PD=1.054e-05	PS=1.054e-05
+ NRD=0.0173	NRS=0.0173
MXI0/MM10@15	VDAC#204	XI0/net30#169	XI0/net4#128	VDD3A	pe3
+ L=1e-06	W=1e-05
+ AD=2.7e-12	AS=2.7e-12	PD=1.054e-05	PS=1.054e-05
+ NRD=0.0173	NRS=0.0173
MXI0/MM10@9	VDAC#204	XI0/net30#172	XI0/net4#134	VDD3A	pe3
+ L=1e-06	W=1e-05
+ AD=2.7e-12	AS=2.7e-12	PD=1.054e-05	PS=1.054e-05
+ NRD=0.0173	NRS=0.0173
MXI0/MM10@14	VDAC#210	XI0/net30#175	XI0/net4#134	VDD3A	pe3
+ L=1e-06	W=1e-05
+ AD=2.7e-12	AS=2.7e-12	PD=1.054e-05	PS=1.054e-05
+ NRD=0.0173	NRS=0.0173
MXI0/MM10@6	VDAC#210	XI0/net30#178	XI0/net4#140	VDD3A	pe3
+ L=1e-06	W=1e-05
+ AD=2.7e-12	AS=4.8e-12	PD=1.054e-05	PS=2.096e-05
+ NRD=0.0173	NRS=0.0173
MXI0/MM9@3	VDAC#216	XI0/net30#181	XI0/net3#52	VDD3A	pe3
+ L=1e-06	W=1e-05
+ AD=2.7e-12	AS=4.8e-12	PD=1.054e-05	PS=2.096e-05
+ NRD=0.0173	NRS=0.0173
MXI0/MM9@6	VDAC#216	XI0/net30#184	XI0/net3#58	VDD3A	pe3
+ L=1e-06	W=1e-05
+ AD=2.7e-12	AS=2.7e-12	PD=1.054e-05	PS=1.054e-05
+ NRD=0.0173	NRS=0.0173
MXI0/MM9@7	VDAC#222	XI0/net30#187	XI0/net3#58	VDD3A	pe3
+ L=1e-06	W=1e-05
+ AD=2.7e-12	AS=2.7e-12	PD=1.054e-05	PS=1.054e-05
+ NRD=0.0173	NRS=0.0173
MXI0/MM9	VDAC#222	XI0/net30#190	XI0/net3#64	VDD3A	pe3
+ L=1e-06	W=1e-05
+ AD=2.7e-12	AS=2.7e-12	PD=1.054e-05	PS=1.054e-05
+ NRD=0.0173	NRS=0.0173
MXI0/MM9@5	VDAC#228	XI0/net30#193	XI0/net3#64	VDD3A	pe3
+ L=1e-06	W=1e-05
+ AD=2.7e-12	AS=2.7e-12	PD=1.054e-05	PS=1.054e-05
+ NRD=0.0173	NRS=0.0173
MXI0/MM9@4	VDAC#228	XI0/net30#196	XI0/net3#70	VDD3A	pe3
+ L=1e-06	W=1e-05
+ AD=2.7e-12	AS=2.7e-12	PD=1.054e-05	PS=1.054e-05
+ NRD=0.0173	NRS=0.0173
MXI0/MM9@1	VDAC#234	XI0/net30#199	XI0/net3#70	VDD3A	pe3
+ L=1e-06	W=1e-05
+ AD=2.7e-12	AS=2.7e-12	PD=1.054e-05	PS=1.054e-05
+ NRD=0.0173	NRS=0.0173
MXI0/MM9@2	VDAC#234	XI0/net30#202	XI0/net3#76	VDD3A	pe3
+ L=1e-06	W=1e-05
+ AD=2.7e-12	AS=4.8e-12	PD=1.054e-05	PS=2.096e-05
+ NRD=0.0173	NRS=0.0173
MXI0/MM8@3	VDAC#240	XI0/net30#205	XI0/net2#32	VDD3A	pe3
+ L=1e-06	W=1e-05
+ AD=2.7e-12	AS=4.8e-12	PD=1.054e-05	PS=2.096e-05
+ NRD=0.0173	NRS=0.0173
MXI0/MM8@2	VDAC#240	XI0/net30#208	XI0/net2#38	VDD3A	pe3
+ L=1e-06	W=1e-05
+ AD=2.7e-12	AS=2.7e-12	PD=1.054e-05	PS=1.054e-05
+ NRD=0.0173	NRS=0.0173
MXI0/MM8	VDAC#246	XI0/net30#211	XI0/net2#38	VDD3A	pe3
+ L=1e-06	W=1e-05
+ AD=2.7e-12	AS=2.7e-12	PD=1.054e-05	PS=1.054e-05
+ NRD=0.0173	NRS=0.0173
MXI0/MM8@1	VDAC#246	XI0/net30#214	XI0/net2#44	VDD3A	pe3
+ L=1e-06	W=1e-05
+ AD=2.7e-12	AS=4.8e-12	PD=1.054e-05	PS=2.096e-05
+ NRD=0.0173	NRS=0.0173
MXI0/MM7	VDAC#252	XI0/net30#217	XI0/net1#22	VDD3A	pe3
+ L=1e-06	W=1e-05
+ AD=2.7e-12	AS=4.8e-12	PD=1.054e-05	PS=2.096e-05
+ NRD=0.0173	NRS=0.0173
MXI0/MM7@1	VDAC#252	XI0/net30#220	XI0/net1#28	VDD3A	pe3
+ L=1e-06	W=1e-05
+ AD=2.7e-12	AS=4.8e-12	PD=1.054e-05	PS=2.096e-05
+ NRD=0.0173	NRS=0.0173
MXI0/MM6	VDAC#258	XI0/net30#223	XI0/net6#17	VDD3A	pe3
+ L=1e-06	W=1e-05
+ AD=4.8e-12	AS=4.8e-12	PD=2.096e-05	PS=2.096e-05
+ NRD=0.0173	NRS=0.0173
MXI0/MM43@20	VDD3A#1753	VDD3A#226	VDD3A#1658	VDD3A	pe3
+ L=1e-05	W=1e-05
+ AD=4.8e-12	AS=4.8e-12	PD=2.096e-05	PS=2.096e-05
+ NRD=0.0173	NRS=0.0173
MXI0/MM43@17	VDD3A#1759	VDD3A#230	VDD3A#1665	VDD3A	pe3
+ L=1e-05	W=1e-05
+ AD=4.8e-12	AS=4.8e-12	PD=2.096e-05	PS=2.096e-05
+ NRD=0.0173	NRS=0.0173
MXI0/MM43@22	VDD3A#1765	VDD3A#234	VDD3A#1674	VDD3A	pe3
+ L=1e-05	W=1e-05
+ AD=4.8e-12	AS=4.8e-12	PD=2.096e-05	PS=2.096e-05
+ NRD=0.0173	NRS=0.0173
MXI0/MM36@1	VDD3A#1771	VDD3A#238	VDD3A#1683	VDD3A	pe3
+ L=1e-05	W=1e-05
+ AD=4.8e-12	AS=4.8e-12	PD=2.096e-05	PS=2.096e-05
+ NRD=0.0173	NRS=0.0173
MXI0/MM43@23	VDD3A#1777	VDD3A#242	VDD3A#1692	VDD3A	pe3
+ L=1e-05	W=1e-05
+ AD=4.8e-12	AS=4.8e-12	PD=2.096e-05	PS=2.096e-05
+ NRD=0.0173	NRS=0.0173
MXI0/MM42@13	VDD3A#1783	VDD3A#246	VDD3A#1650	VDD3A	pe3
+ L=1e-05	W=1e-05
+ AD=4.8e-12	AS=4.8e-12	PD=2.096e-05	PS=2.096e-05
+ NRD=0.0173	NRS=0.0173
MXI0/MM5@2	XI0/net5#248	XI0/net7#273	VDD3A#1577	VDD3A	pe3
+ L=1e-05	W=1e-05
+ AD=4.8e-12	AS=4.8e-12	PD=2.096e-05	PS=2.096e-05
+ NRD=0.0173	NRS=0.0173
MXI0/MM5@7	XI0/net5#253	XI0/net7#277	VDD3A#1584	VDD3A	pe3
+ L=1e-05	W=1e-05
+ AD=4.8e-12	AS=4.8e-12	PD=2.096e-05	PS=2.096e-05
+ NRD=0.0173	NRS=0.0173
MXI0/MM5@12	XI0/net5#258	XI0/net7#281	VDD3A#1591	VDD3A	pe3
+ L=1e-05	W=1e-05
+ AD=4.8e-12	AS=4.8e-12	PD=2.096e-05	PS=2.096e-05
+ NRD=0.0173	NRS=0.0173
MXI0/MM5@8	XI0/net5#263	XI0/net7#285	VDD3A#1598	VDD3A	pe3
+ L=1e-05	W=1e-05
+ AD=4.8e-12	AS=4.8e-12	PD=2.096e-05	PS=2.096e-05
+ NRD=0.0173	NRS=0.0173
MXI0/MM5@11	XI0/net5#268	XI0/net7#289	VDD3A#1605	VDD3A	pe3
+ L=1e-05	W=1e-05
+ AD=4.8e-12	AS=4.8e-12	PD=2.096e-05	PS=2.096e-05
+ NRD=0.0173	NRS=0.0173
MXI0/MM43@15	VDD3A#1630	VDD3A#212	VDD3A#1569	VDD3A	pe3
+ L=1e-05	W=1e-05
+ AD=4.8e-12	AS=4.8e-12	PD=2.096e-05	PS=2.096e-05
+ NRD=0.0173	NRS=0.0173
MXI0/MM5@31	XI0/net5#223	XI0/net7#253	VDD3A#1496	VDD3A	pe3
+ L=1e-05	W=1e-05
+ AD=4.8e-12	AS=4.8e-12	PD=2.096e-05	PS=2.096e-05
+ NRD=0.0173	NRS=0.0173
MXI0/MM5@28	XI0/net5#228	XI0/net7#257	VDD3A#1503	VDD3A	pe3
+ L=1e-05	W=1e-05
+ AD=4.8e-12	AS=4.8e-12	PD=2.096e-05	PS=2.096e-05
+ NRD=0.0173	NRS=0.0173
MXI0/MM5@26	XI0/net5#233	XI0/net7#261	VDD3A#1510	VDD3A	pe3
+ L=1e-05	W=1e-05
+ AD=4.8e-12	AS=4.8e-12	PD=2.096e-05	PS=2.096e-05
+ NRD=0.0173	NRS=0.0173
MXI0/MM5@17	XI0/net5#238	XI0/net7#265	VDD3A#1517	VDD3A	pe3
+ L=1e-05	W=1e-05
+ AD=4.8e-12	AS=4.8e-12	PD=2.096e-05	PS=2.096e-05
+ NRD=0.0173	NRS=0.0173
MXI0/MM5@10	XI0/net5#243	XI0/net7#269	VDD3A#1524	VDD3A	pe3
+ L=1e-05	W=1e-05
+ AD=4.8e-12	AS=4.8e-12	PD=2.096e-05	PS=2.096e-05
+ NRD=0.0173	NRS=0.0173
MXI0/MM42@11	VDD3A#1549	VDD3A#198	VDD3A#1488	VDD3A	pe3
+ L=1e-05	W=1e-05
+ AD=4.8e-12	AS=4.8e-12	PD=2.096e-05	PS=2.096e-05
+ NRD=0.0173	NRS=0.0173
MXI0/MM43@21	VDD3A#527	VDD3A#29	VDD3A#516	VDD3A	pe3
+ L=1e-05	W=1e-05
+ AD=4.8e-12	AS=4.8e-12	PD=2.096e-05	PS=2.096e-05
+ NRD=0.0173	NRS=0.0173
MXI0/MM42@12	VDD3A#536	VDD3A#36	VDD3A#521	VDD3A	pe3
+ L=1e-05	W=1e-05
+ AD=4.8e-12	AS=4.8e-12	PD=2.096e-05	PS=2.096e-05
+ NRD=0.0173	NRS=0.0173
MXI0/MM23@6	XI0/net12#246	XI0/net12#57	VDD3A#506	VDD3A	pe3
+ L=1e-05	W=1e-05
+ AD=4.8e-12	AS=4.8e-12	PD=2.096e-05	PS=2.096e-05
+ NRD=0.0173	NRS=0.0173
MXI0/MM22@5	XI0/net7#402	XI0/net12#64	VDD3A#511	VDD3A	pe3
+ L=1e-05	W=1e-05
+ AD=4.8e-12	AS=4.8e-12	PD=2.096e-05	PS=2.096e-05
+ NRD=0.0173	NRS=0.0173
MXI0/MM23@4	XI0/net12#231	XI0/net12#56	VDD3A#501	VDD3A	pe3
+ L=1e-05	W=1e-05
+ AD=4.8e-12	AS=4.8e-12	PD=2.096e-05	PS=2.096e-05
+ NRD=0.0173	NRS=0.0173
MXI0/MM22@1	XI0/net7#390	XI0/net12#48	VDD3A#480	VDD3A	pe3
+ L=1e-05	W=1e-05
+ AD=4.8e-12	AS=4.8e-12	PD=2.096e-05	PS=2.096e-05
+ NRD=0.0173	NRS=0.0173
MXI0/MM23	XI0/net12#193	XI0/net12#40	VDD3A#470	VDD3A	pe3
+ L=1e-05	W=1e-05
+ AD=4.8e-12	AS=4.8e-12	PD=2.096e-05	PS=2.096e-05
+ NRD=0.0173	NRS=0.0173
MXI0/MM22	XI0/net7#358	XI0/net12#32	VDD3A#460	VDD3A	pe3
+ L=1e-05	W=1e-05
+ AD=4.8e-12	AS=4.8e-12	PD=2.096e-05	PS=2.096e-05
+ NRD=0.0173	NRS=0.0173
MXI0/MM23@5	XI0/net12#139	XI0/net12#24	VDD3A#442	VDD3A	pe3
+ L=1e-05	W=1e-05
+ AD=4.8e-12	AS=4.8e-12	PD=2.096e-05	PS=2.096e-05
+ NRD=0.0173	NRS=0.0173
MXI0/MM22@3	XI0/net7#318	XI0/net12#16	VDD3A#432	VDD3A	pe3
+ L=1e-05	W=1e-05
+ AD=4.8e-12	AS=4.8e-12	PD=2.096e-05	PS=2.096e-05
+ NRD=0.0173	NRS=0.0173
MXI0/MM23@2	XI0/net12#81	XI0/net12#8	VDD3A#422	VDD3A	pe3
+ L=1e-05	W=1e-05
+ AD=4.8e-12	AS=4.8e-12	PD=2.096e-05	PS=2.096e-05
+ NRD=0.0173	NRS=0.0173
MXI0/MM43@19	VDD3A#410	VDD3A#28	VDD3A#395	VDD3A	pe3
+ L=1e-05	W=1e-05
+ AD=4.8e-12	AS=4.8e-12	PD=2.096e-05	PS=2.096e-05
+ NRD=0.0173	NRS=0.0173
MXI0/MM28	XI0/net8#48	XI0/net8#9	VDD3A#355	VDD3A	pe3
+ L=1e-05	W=1e-05
+ AD=4.8e-12	AS=4.8e-12	PD=2.096e-05	PS=2.096e-05
+ NRD=0.0173	NRS=0.0173
MXI0/MM27	XI0/net10#8	XI0/net8#16	VDD3A#360	VDD3A	pe3
+ L=1e-05	W=1e-05
+ AD=4.8e-12	AS=4.8e-12	PD=2.096e-05	PS=2.096e-05
+ NRD=0.0173	NRS=0.0173
MXI0/MM27@1	XI0/net10#3	XI0/net8	VDD3A#345	VDD3A	pe3
+ L=1e-05	W=1e-05
+ AD=4.8e-12	AS=4.8e-12	PD=2.096e-05	PS=2.096e-05
+ NRD=0.0173	NRS=0.0173
MXI0/MM28@1	XI0/net8#28	XI0/net8#8	VDD3A#350	VDD3A	pe3
+ L=1e-05	W=1e-05
+ AD=4.8e-12	AS=4.8e-12	PD=2.096e-05	PS=2.096e-05
+ NRD=0.0173	NRS=0.0173
*
*
*       CANONICAL RESISTOR AND CAP/DIODE CARDS
*
RXI1/RR1	VSUBHV	GNDA	s_res 	5.000000
RXI1/RR2	XI1/VA#4	VDDHV#2	rpp1k1_3 	L=0.00041122
+ W=4e-06	$SUB=VSUBHV 
RXI1/RR4@8	EXT_FB_RES#17	XI1/net1#72	rpp1k1_3 	L=1e-05
+ W=2e-06	$SUB=GNDA 
RXI1/RR4@7	EXT_FB_RES#15	XI1/net1#70	rpp1k1_3 	L=1e-05
+ W=2e-06	$SUB=GNDA 
RXI1/RR4@6	EXT_FB_RES#13	XI1/net1#68	rpp1k1_3 	L=1e-05
+ W=2e-06	$SUB=GNDA 
RXI1/RR4@5	EXT_FB_RES#11	XI1/net1#66	rpp1k1_3 	L=1e-05
+ W=2e-06	$SUB=GNDA 
RXI1/RR4@4	EXT_FB_RES#9	XI1/net1#64	rpp1k1_3 	L=1e-05
+ W=2e-06	$SUB=GNDA 
RXI1/RR4@3	EXT_FB_RES#7	XI1/net1#62	rpp1k1_3 	L=1e-05
+ W=2e-06	$SUB=GNDA 
RXI1/RR4@2	EXT_FB_RES#5	XI1/net1#60	rpp1k1_3 	L=1e-05
+ W=2e-06	$SUB=GNDA 
RXI1/RR4@1	EXT_FB_RES#3	XI1/net1#58	rpp1k1_3 	L=1e-05
+ W=2e-06	$SUB=GNDA 
RXI1/RR4	EXT_FB_RES#1	XI1/net1#56	rpp1k1_3 	L=1e-05
+ W=2e-06	$SUB=GNDA 
RXI1/RR7	GNDHV#3	CUR_OUT#2	rpp1k1_3 	L=0.00204354
+ W=2e-06	$SUB=VSUBHV 
RXI1/RR3	GNDHV#1	XI1/VA#1	rpp1k1_3 	L=0.00010265
+ W=4e-06	$SUB=VSUBHV 
RXI0/RR1	GNDA#13	XI0/net14#4	rpp1k1_3 	L=0.0008227
+ W=4e-06	$SUB=GNDA 
RXI0/RR0	GNDA#20	VDAC	rpp1k1_3 	L=0.00021702	W=4e-06
+ $SUB=GNDA 
RXI1/RR0	XI1/net11#2	XI1/VB#2	rpp1k1_3 	L=0.00016435
+ W=4e-06	$SUB=VDD3A 
*
*       PARASITIC RESISTOR AND CAP/DIODE CARDS
*
Rb119	XI1/net9#219	XI1/net9#306	1.108955	$METTP	$L=3.16e-05
+ $W=8.8e-07	$X=737.7 $Y=146.13
Rb120	XI1/net9#306	XI1/net9#307	1.108955	$METTP	$L=3.16e-05
+ $W=8.8e-07	$X=706.1 $Y=146.13
Rb121	XI1/net9#307	XI1/net9#155	1.108955	$METTP	$L=3.16e-05
+ $W=8.8e-07	$X=674.5 $Y=146.13
Rc2	VREF#211	VREF	8.491097	$MET4	$L=5.27825e-05
+ $W=4.6e-07	$X=48.486 $Y=135.625
Rc5	XI0/net7#1037	XI0/net7#1022	1.254980	$MET4	$L=3.324e-05
+ $W=1.96e-06	$X=77.79 $Y=151.755
Rc8	XI0/net12#318	XI0/net12#335	1.254980	$MET4	$L=3.324e-05
+ $W=1.96e-06	$X=80.07 $Y=153.535
Rc11	XI0/A	XI0/A#425	1.053367	$MET4	$L=2.79e-05
+ $W=1.96e-06	$X=146.47 $Y=149.975
Rc16	XI0/A#425	XI0/A	1.053367	$MET4	$L=2.79e-05
+ $W=1.96e-06	$X=82.35 $Y=122.075
Rc19	XI0/net7#1037	XI0/net7#1022	1.254980	$MET4	$L=3.324e-05
+ $W=1.96e-06	$X=148.75 $Y=151.755
Rc22	XI0/net12#318	XI0/net12#335	1.254980	$MET4	$L=3.324e-05
+ $W=1.96e-06	$X=151.03 $Y=153.535
Rc24	XI0/net4#207	XI0/net4#51	4.080770	$MET4	$L=0.000109025
+ $W=1.96e-06	$X=263.9975 $Y=72.445
Rc27	XI0/net3#147	XI0/net3#49	1.573057	$MET4	$L=4.26048e-05
+ $W=1.96e-06	$X=380.2825 $Y=70.92
Rc35	ENABLE#61	ENABLE#63	9.547170	$MET4	$L=5.93672e-05
+ $W=4.6e-07	$X=49.5535 $Y=101.1
Rc36	ENABLE#63	ENABLE#64	16.882458	$MET4	$L=0.000104985
+ $W=4.6e-07	$X=19.87 $Y=101.1
Rc38	ENABLE#64	ENABLE	64.087982	$MET4	$L=0.000398425
+ $W=4.6e-07	$X=219.0825 $Y=206.085
Rc39	ENABLE	ENABLE#59	16.641115	$MET4	$L=0.000103485
+ $W=4.6e-07	$X=418.295 $Y=206.085
Rc43	PULSE_ACTIVE	PULSE_ACTIVE#32	16.420723	$MET4
+ $L=0.000102095	$W=4.6e-07	$X=419.995 $Y=206.09
Rc44	PULSE_ACTIVE#32	PULSE_ACTIVE#29	1.357739	$MET4
+ $L=8.48e-06	$W=4.6e-07	$X=424.235 $Y=103.995
Rc49	VDAC#417	VDAC#432	4.134372	$MET4	$L=2.57005e-05
+ $W=4.6e-07	$X=510.2775 $Y=50.2
Rc52	XI1/net9#164	XI1/net9#13	2.623693	$MET4	$L=5.18047e-05
+ $W=1.46e-06	$X=488.5675 $Y=96.56
Rc267	XI1/VA	XI1/VA#2	1.387131	$MET4	$L=5.55153e-05
+ $W=2.96e-06	$X=715.395 $Y=100.825
Rc278	XI1/net11#13	XI1/net11#16	2.432750	$MET4	$L=3.16e-05
+ $W=9.6e-07	$X=737.7 $Y=146.13
Rc279	XI1/net11#16	XI1/net11#17	2.432750	$MET4	$L=3.16e-05
+ $W=9.6e-07	$X=706.1 $Y=146.13
Rc280	XI1/net11#17	XI1/net11	1.416052	$MET4	$L=1.841e-05
+ $W=9.6e-07	$X=681.095 $Y=146.13
Rc281	XI1/net11	XI1/net11#19	1.013677	$MET4	$L=1.319e-05
+ $W=9.6e-07	$X=665.295 $Y=146.13
Rc282	XI1/net11#19	XI1/net11#20	1.193269	$MET4	$L=1.55002e-05
+ $W=9.6e-07	$X=650.95 $Y=146.13
Rc286	XI1/net11#13	XI1/net11#24	1.193193	$MET4	$L=1.54998e-05
+ $W=9.6e-07	$X=761.2495 $Y=146.13
Rc459	EXT_FB_RES	EXT_FB_RES#826	9.713713	$MET4	$L=0.00012632
+ $W=9.6e-07	$X=725.82 $Y=108.08
Rc460	EXT_FB_RES#826	EXT_FB_RES#19	2.221591	$MET4	$L=2.88603e-05
+ $W=9.6e-07	$X=662.66 $Y=108.08
Rd13	XI0/net10	XI0/net10#39	1.630027	$MET3	$L=3.291e-05
+ $W=1.46e-06	$X=55.91 $Y=198.65
Rd15	XI0/net8#40	XI0/net8#76	4.027424	$MET3	$L=7.95e-05
+ $W=1.46e-06	$X=70.52 $Y=79.74
Rd19	XI0/net13#21	XI0/net13#86	1.202122	$MET3	$L=3.184e-05
+ $W=1.96e-06	$X=74.15 $Y=68.48
Rd22	XI0/net15#72	XI0/net15#66	1.202122	$MET3	$L=3.184e-05
+ $W=1.96e-06	$X=76.43 $Y=34.86
Rd29	ENABLE#53	ENABLE#55	3.805004	$MET3	$L=2.36728e-05
+ $W=4.6e-07	$X=91.0735 $Y=101.1
Rd30	ENABLE#55	ENABLE#40	2.972933	$MET3	$L=1.85005e-05
+ $W=4.6e-07	$X=102.86 $Y=101.1
Rd33	XI0/net9#313	XI0/net9#255	1.223467	$MET3	$L=4.96e-06
+ $W=3e-07	$X=113.325 $Y=87.215
Rd34	XI0/net9#255	XI0/net9#291	1.334270	$MET3	$L=5.40975e-06
+ $W=3e-07	$X=113.3435 $Y=84.735
Rd37	XI0/net9#291	XI0/net9#251	1.329479	$MET3	$L=5.40975e-06
+ $W=3e-07	$X=111.545 $Y=79.325
Rd39	XI0/net9#251	XI0/net9#320	1.223467	$MET3	$L=4.96e-06
+ $W=3e-07	$X=111.545 $Y=87.215
Rd159	VREF#193	VREF#194	1.949739	$MET3	$L=1.212e-05
+ $W=4.6e-07	$X=145.97 $Y=135.625
Rd175	VREF#194	VREF#210	2.207533	$MET3	$L=1.4665e-05
+ $W=4.6e-07	$X=81.7385 $Y=135.625
Rd176	XI0/net14#243	XI0/net14#244	1.999609	$MET3	$L=1.243e-05
+ $W=4.6e-07	$X=83.005 $Y=136.405
Rd192	XI0/net14#244	XI0/net14#260	2.397798	$MET3	$L=1.49253e-05
+ $W=4.6e-07	$X=147.3725 $Y=136.405
Rd193	XI0/net14#260	XI0/net14#240	8.581624	$MET3	$L=5.33652e-05
+ $W=4.6e-07	$X=154.835 $Y=136.405
Rd196	XI0/net7#912	XI0/net7#399	1.214204	$MET3	$L=3.216e-05
+ $W=1.96e-06	$X=186.71 $Y=198.65
Rd198	XI0/net7#399	XI0/net7#1037	1.097918	$MET3	$L=2.912e-05
+ $W=1.96e-06	$X=172.15 $Y=159.88
Rd212	XI0/net30	XI0/net30#776	1.001679	$MET3	$L=1.34148e-05
+ $W=9.6e-07	$X=194.265 $Y=48.29
Rd295	XI0/net5#38	XI0/net5#165	1.064883	$MET3	$L=2.8245e-05
+ $W=1.96e-06	$X=312.57 $Y=64.16
Rd314	XI0/net3#49	XI0/net3#45	1.065827	$MET3	$L=2.827e-05
+ $W=1.96e-06	$X=345.43 $Y=64.17
Rd373	XI0/net2#102	XI0/net2#25	1.017122	$MET3	$L=2.698e-05
+ $W=1.96e-06	$X=385.355 $Y=66.835
Rd419	XI1/net5#31	XI1/net5#36	1.210429	$MET3	$L=3.206e-05
+ $W=1.96e-06	$X=425.02 $Y=64.78
Rd427	XI1/net14#36	XI1/net14#31	1.210429	$MET3	$L=3.206e-05
+ $W=1.96e-06	$X=422.74 $Y=34.56
Rd429	XI1/net14#31	XI1/net14	1.258944	$MET3	$L=3.3385e-05
+ $W=1.96e-06	$X=439.4325 $Y=74.675
Rd434	XI1/net14#28	XI1/net14#33	1.210429	$MET3	$L=3.206e-05
+ $W=1.96e-06	$X=488.94 $Y=66.62
Rd437	XI1/net5#33	XI1/net5#11	1.210429	$MET3	$L=3.206e-05
+ $W=1.96e-06	$X=491.28 $Y=32.72
Rd448	VDAC#69	VDAC#2	2.045949	$MET3	$L=5.423e-05
+ $W=1.96e-06	$X=229.235 $Y=46.01
Rd451	VDAC#2	VDAC#426	3.070432	$MET3	$L=8.13548e-05
+ $W=1.96e-06	$X=158.7575 $Y=64.4
Rd454	VDAC#426	VDAC#57	1.329479	$MET3	$L=5.40975e-06
+ $W=3e-07	$X=117.15 $Y=79.325
Rd456	VDAC#69	VDAC#431	3.416842	$MET3	$L=2.126e-05
+ $W=4.6e-07	$X=256.405 $Y=45.01
Rd457	VDAC#431	VDAC#432	40.700779	$MET3	$L=0.000253025
+ $W=4.6e-07	$X=382.9725 $Y=23.75
Rd462	VDAC#426	VDAC#61	1.292544	$MET3	$L=5.24025e-06
+ $W=3e-07	$X=118.93 $Y=79.4945
Rd463	VDAC#61	VDAC#438	1.223467	$MET3	$L=4.96e-06
+ $W=3e-07	$X=118.93 $Y=87.215
Rd464	VDAC#57	VDAC#439	1.223467	$MET3	$L=4.96e-06
+ $W=3e-07	$X=117.15 $Y=84.735
Rd476	XI1/net4#218	XI1/net4#79	1.828471	$MET3	$L=3.86652e-05
+ $W=1.46e-06	$X=499.575 $Y=125.29
Rd481	XI1/net7#128	XI1/net7#138	1.248939	$MET3	$L=3.308e-05
+ $W=1.96e-06	$X=516.71 $Y=115.95
Rd484	XI1/net6	XI1/net6#274	1.224776	$MET3	$L=3.244e-05
+ $W=1.96e-06	$X=518.39 $Y=171.595
[...]
C9583	XI1/net6#239	GNDA	3.13016e-17	$X=595.0645 $Y=52.729
C9584	XI1/net10#234	GNDA	3.1271e-17	$X=595.0645 $Y=48.6295
C9585	XI1/net6#245	GNDA	3.13016e-17	$X=606.1445 $Y=52.729
C9586	XI1/net10#240	GNDA	3.1271e-17	$X=606.1445 $Y=48.6295
C9587	XI1/net6#251	GNDA	3.13016e-17	$X=617.224 $Y=52.729
C9588	XI1/net10#246	GNDA	3.1271e-17	$X=617.224 $Y=48.6295
C9589	VDAC#398	GNDA	9.22667e-16	$X=623.4595 $Y=50.9595
C9590	VDAC#399	GNDA	3.74369e-16	$X=619.185 $Y=50.9595
C9591	VDAC#400	GNDA	7.54607e-16	$X=614.9645 $Y=50.9595
C9592	VDAC#401	GNDA	7.54607e-16	$X=609.4245 $Y=50.9595
C9593	VDAC#402	GNDA	7.54607e-16	$X=603.885 $Y=50.9595
C9594	VDAC#403	GNDA	7.54607e-16	$X=598.3445 $Y=50.9595
C9595	VDAC#404	GNDA	7.54607e-16	$X=592.8045 $Y=50.9595
C9596	VDAC#405	GNDA	7.54607e-16	$X=587.2645 $Y=50.9595
C9597	VDAC#406	GNDA	7.54607e-16	$X=581.7245 $Y=50.9595
C9598	VDAC#407	GNDA	1.11475e-15	$X=575.0295 $Y=50.9595
C9599	VDAC#408	GNDA	1.25866e-15	$X=567.1795 $Y=50.9595
C9600	VDAC#409	GNDA	9.20199e-16	$X=560.4845 $Y=50.9595
C9601	VDAC#410	GNDA	9.20199e-16	$X=554.945 $Y=50.9595
C9602	VDAC#411	GNDA	9.20199e-16	$X=549.4045 $Y=50.9595
C9603	VDAC#412	GNDA	9.20199e-16	$X=543.8645 $Y=50.9595
C9604	VDAC#413	GNDA	9.20199e-16	$X=538.3245 $Y=50.9595
C9605	VDAC#414	GNDA	9.20199e-16	$X=532.7845 $Y=50.9595
C9606	VDAC#415	GNDA	9.20199e-16	$X=527.245 $Y=50.9595
C9607	VDAC#416	GNDA	1.37658e-15	$X=520.3955 $Y=50.9595
C9608	VDAC#417	GNDA	1.74444e-15	$X=510.9925 $Y=49.666
C9609	XI1/net4#217	GNDA	6.47513e-15	$X=573.303 $Y=176.934
C9610	XI1/net8#297	GNDA	1.58976e-14	$X=612.436 $Y=171.0635
C9611	XI1/net8#304	GNDA	1.71342e-14	$X=532.782 $Y=171.0635
C9612	XI1/net10#255	GNDA	1.06497e-14	$X=547.902 $Y=173.374
C9613	XI1/net10#254	GNDA	3.38523e-15	$X=591.7485 $Y=173.374
C9614	XI1/net6#252	GNDA	9.75675e-15	$X=598.6525 $Y=171.594
C9615	XI1/net6#253	GNDA	3.86496e-15	$X=556.194 $Y=171.594
C9616	XI1/net4#232	GNDA	1.09392e-15	$X=571.919 $Y=156.334
C9617	VDD3A#2566	GNDA	1.50231e-14	$X=571.913 $Y=144.607
C9618	XI1/net8#311	GNDA	1.60313e-14	$X=612.436 $Y=141.464
C9619	XI1/net8#318	GNDA	4.63983e-14	$X=564.7275 $Y=122.527
C9620	XI1/net4#235	GNDA	6.66499e-15	$X=573.303 $Y=135.5945
C9621	XI1/net9#155	GNDA	3.4593e-14	$X=625.252 $Y=128.2155
C9622	XI1/net7#128	GNDA	4.22553e-14	$X=571.833 $Y=111.8735
C9623	XI1/net8#343	GNDA	2.39557e-14	$X=571.073 $Y=89.024
C9624	XI1/net7#138	GNDA	9.05013e-15	$X=518.838 $Y=86.372
C9625	XI1/net7#140	GNDA	4.12127e-14	$X=627.5195 $Y=62.347
C9626	XI1/net6#274	GNDA	1.5502e-14	$X=524.2845 $Y=142.1315
C9627	XI1/net6#256	GNDA	1.20086e-15	$X=620.3795 $Y=99.9095
C9628	XI1/net6#257	GNDA	1.24912e-16	$X=610.1395 $Y=99.9095
C9629	XI1/net6#258	GNDA	3.43594e-16	$X=602.0095 $Y=99.9095
C9630	XI1/net6#260	GNDA	3.43594e-16	$X=589.5295 $Y=99.9095
C9631	XI1/net6#262	GNDA	3.43594e-16	$X=577.0495 $Y=99.9095
C9632	XI1/net6#264	GNDA	3.43594e-16	$X=564.5695 $Y=99.9095
C9633	XI1/net6#266	GNDA	3.43594e-16	$X=552.0895 $Y=99.9095
C9634	XI1/net6#268	GNDA	3.43594e-16	$X=539.6095 $Y=99.9095
C9635	XI1/net6#270	GNDA	5.94596e-16	$X=526.8795 $Y=99.9095
C9636	XI1/net6#271	GNDA	6.02805e-15	$X=510.0635 $Y=102.253
C9637	XI1/net6#279	GNDA	1.26108e-14	$X=589.3865 $Y=139.154
C9638	VDD3A#2666	GNDA	3.92804e-17	$X=466.2225 $Y=149.7295
C9639	VDD3A#2668	GNDA	2.27031e-17	$X=485.64 $Y=149.729
C9640	VDD3A#2662	GNDA	2.44585e-16	$X=466.2225 $Y=171.729
C9641	VDD3A#2664	GNDA	2.46241e-16	$X=485.64 $Y=171.729
C9642	VDD3A#2650	GNDA	2.51131e-17	$X=433.6865 $Y=149.7295
C9643	VDD3A#2646	GNDA	2.55084e-16	$X=433.6865 $Y=171.729
C9644	XI1/net10#280	GNDA	1.17856e-15	$X=522.2735 $Y=100.6895
C9645	XI1/net10#260	GNDA	5.43894e-15	$X=632.2025 $Y=93.365
C9646	XI1/net10#256	GNDA	8.747e-15	$X=541.712 $Y=140.934
C9647	XI1/net10#257	GNDA	4.31722e-15	$X=582.4375 $Y=140.934
C9648	XI1/net10#263	GNDA	7.37398e-16	$X=612.658 $Y=100.6895
C9649	XI1/net10#265	GNDA	3.5724e-16	$X=596.9345 $Y=100.6895
C9650	XI1/net10#267	GNDA	3.5724e-16	$X=584.4545 $Y=100.6895
C9651	XI1/net10#269	GNDA	3.5724e-16	$X=571.9745 $Y=100.6895
C9652	XI1/net10#271	GNDA	3.5724e-16	$X=559.4945 $Y=100.6895
C9653	XI1/net10#273	GNDA	3.5724e-16	$X=547.0145 $Y=100.6895
C9654	XI1/net10#275	GNDA	2.77546e-16	$X=535.9465 $Y=100.6895
C9655	XI1/net1#178	GNDA	2.13957e-15	$X=635.069 $Y=60.4005
C9656	XI1/net1#177	GNDA	1.75975e-15	$X=635.069 $Y=80.6835
C9657	XI1/net1#197	GNDA	1.01577e-15	$X=518.0235 $Y=50.3995
C9658	XI1/net1#179	GNDA	1.51115e-15	$X=622.378 $Y=50.3995
C9659	XI1/net1#180	GNDA	7.54567e-16	$X=614.4545 $Y=50.3995
C9660	XI1/net1#181	GNDA	7.54567e-16	$X=608.9145 $Y=50.3995
C9661	XI1/net1#182	GNDA	7.54567e-16	$X=603.375 $Y=50.3995
C9662	XI1/net1#183	GNDA	7.54567e-16	$X=597.8345 $Y=50.3995
C9663	XI1/net1#184	GNDA	7.54567e-16	$X=592.2945 $Y=50.3995
C9664	XI1/net1#185	GNDA	7.54567e-16	$X=586.7545 $Y=50.3995
C9665	XI1/net1#186	GNDA	7.54567e-16	$X=581.2145 $Y=50.3995
C9666	XI1/net1#187	GNDA	1.11145e-15	$X=574.492 $Y=50.3995
C9667	XI1/net1#188	GNDA	1.29425e-15	$X=566.587 $Y=50.3995
C9668	XI1/net1#189	GNDA	9.23228e-16	$X=559.8645 $Y=50.3995
C9669	XI1/net1#190	GNDA	9.23228e-16	$X=554.3245 $Y=50.3995
C9670	XI1/net1#191	GNDA	9.23228e-16	$X=548.7845 $Y=50.3995
C9671	XI1/net1#192	GNDA	9.23228e-16	$X=543.245 $Y=50.3995
C9672	XI1/net1#193	GNDA	9.23228e-16	$X=537.7045 $Y=50.3995
C9673	XI1/net1#194	GNDA	9.23228e-16	$X=532.1645 $Y=50.3995
C9674	XI1/net1#195	GNDA	9.23228e-16	$X=526.6245 $Y=50.3995
C9675	XI1/net1#196	GNDA	4.81949e-16	$X=522.399 $Y=50.3995
C9676	XI1/VB#63	GNDA	1.33509e-14	$X=661.2545 $Y=36.3745
C9677	XI1/net9#178	GNDA	1.09101e-15	$X=660.1115 $Y=46.2895
C9678	XI1/VB#75	GNDA	5.71798e-15	$X=690.176 $Y=45.2795
C9679	XI1/VB#70	GNDA	6.2724e-15	$X=690.1755 $Y=92.5595
C9680	XI1/VB#73	GNDA	4.03639e-15	$X=673.941 $Y=88.8395
C9681	XI1/VA#273	GNDA	2.62926e-15	$X=843.745 $Y=94.3845
C9682	XI1/VA#275	GNDA	1.39787e-16	$X=847.227 $Y=76.5345
C9683	XI1/VA#278	GNDA	1.26114e-16	$X=910.8565 $Y=76.5345
C9684	CUR_OUT#415	GNDA	3.64449e-17	$X=928.714 $Y=171.919
C9685	BIAS1#1	GNDA	4.35058e-16	$X=22.855 $Y=86.502
C9686	BIAS1#4	GNDA	3.04761e-16	$X=25.395 $Y=86.502
C9687	BIAS1#7	GNDA	3.04761e-16	$X=27.935 $Y=86.502
C9688	XI0/net9#4	GNDA	7.39943e-16	$X=29.91 $Y=43.387
C9689	BIAS1#10	GNDA	3.04761e-16	$X=30.475 $Y=86.502
C9690	BIAS1#13	GNDA	3.0636e-16	$X=33.015 $Y=86.502
C9691	XI0/net9#10	GNDA	7.27312e-16	$X=33.15 $Y=43.387
C9692	BIAS1#16	GNDA	3.07685e-16	$X=35.555 $Y=86.502
C9693	XI0/net9#16	GNDA	4.94677e-16	$X=36.39 $Y=43.387
C9694	BIAS1#19	GNDA	3.07685e-16	$X=38.095 $Y=86.502
C9695	XI0/net9#22	GNDA	6.91991e-16	$X=39.63 $Y=43.387
C9696	BIAS1#22	GNDA	4.09407e-16	$X=40.635 $Y=86.502
C9697	XI0/net9#28	GNDA	7.27312e-16	$X=42.87 $Y=43.387
C9698	XI0/net9#34	GNDA	4.94678e-16	$X=46.11 $Y=43.387
C9699	XI0/net9#40	GNDA	6.91991e-16	$X=49.35 $Y=43.387
C9700	BIAS1#25	GNDA	6.61038e-16	$X=49.61 $Y=86.502
C9701	BIAS1#28	GNDA	5.49287e-16	$X=52.15 $Y=86.502
C9702	XI0/net9#46	GNDA	7.27312e-16	$X=52.59 $Y=43.387
C9703	BIAS1#31	GNDA	5.49287e-16	$X=54.69 $Y=86.502
C9704	XI0/net9#52	GNDA	4.94677e-16	$X=55.83 $Y=43.387
C9705	BIAS1#34	GNDA	5.49287e-16	$X=57.23 $Y=86.502
C9706	XI0/net9#58	GNDA	6.91991e-16	$X=59.07 $Y=43.387
C9707	BIAS1#37	GNDA	5.49287e-16	$X=59.77 $Y=86.502
C9708	BIAS1#40	GNDA	5.49287e-16	$X=62.31 $Y=86.502
C9709	XI0/net9#64	GNDA	7.27312e-16	$X=62.31 $Y=43.387
C9710	BIAS1#43	GNDA	5.49099e-16	$X=64.85 $Y=86.502
C9711	XI0/net9#70	GNDA	5.07309e-16	$X=65.55 $Y=43.387
C9712	BIAS1#46	GNDA	6.61043e-16	$X=67.39 $Y=86.502
C9713	BIAS1#49	GNDA	6.78366e-16	$X=77.345 $Y=86.502
C9714	VDD3A#25	GNDA	1.3609e-16	$X=75.2435 $Y=181.943
C9715	BIAS1#52	GNDA	5.66146e-16	$X=79.885 $Y=86.502
C9716	BIAS1#55	GNDA	5.66605e-16	$X=82.425 $Y=86.502
C9717	BIAS1#58	GNDA	5.66605e-16	$X=84.965 $Y=86.502
C9718	BIAS1#61	GNDA	5.66605e-16	$X=87.505 $Y=86.502
C9719	BIAS1#64	GNDA	5.66605e-16	$X=90.045 $Y=86.502
C9720	BIAS1#67	GNDA	5.66605e-16	$X=92.585 $Y=86.502
C9721	BIAS1#70	GNDA	6.78356e-16	$X=95.125 $Y=86.502
C9722	ENABLE#1	GNDA	1.14691e-16	$X=105.3495 $Y=80.627
C9723	ENABLE#3	GNDA	7.06893e-17	$X=105.3495 $Y=82.0225
C9724	ENABLE#7	GNDA	1.05731e-16	$X=105.3745 $Y=85.7315
C9725	XI0/EN#3	GNDA	1.82071e-16	$X=111.0995 $Y=88.845
C9726	XI0/EN#4	GNDA	3.11962e-16	$X=112.4345 $Y=90.1445
C9727	XI0/EN#11	GNDA	1.83214e-16	$X=113.7695 $Y=88.8455
C9728	XI0/EN#13	GNDA	3.37618e-16	$X=113.7695 $Y=83.425
C9729	XI0/EN#10	GNDA	2.87814e-16	$X=112.8795 $Y=83.425
C9730	XI0/EN#6	GNDA	2.85342e-16	$X=111.9895 $Y=83.425
C9731	XI0/EN#16	GNDA	1.82023e-16	$X=116.7045 $Y=88.845
C9732	XI0/EN#17	GNDA	3.12021e-16	$X=118.0395 $Y=90.1445
C9733	XI0/EN#24	GNDA	1.61368e-16	$X=119.3745 $Y=88.8455
C9734	XI0/EN#26	GNDA	3.37123e-16	$X=119.3745 $Y=83.425
C9735	XI0/EN#23	GNDA	2.80446e-16	$X=118.4845 $Y=83.425
C9736	XI0/EN#19	GNDA	2.84394e-16	$X=117.5945 $Y=83.425
C9737	XI0/EN#14	GNDA	3.37895e-16	$X=116.7045 $Y=83.4245
C9738	VDD3A#33	GNDA	1.53884e-16	$X=176.4145 $Y=181.943
C9739	VDD3A#41	GNDA	5.38504e-17	$X=219.591 $Y=198.1295
C9740	VDD3A#37	GNDA	1.03122e-16	$X=228.876 $Y=198.129
C9741	VDD3A#70	GNDA	3.33987e-18	$X=219.591 $Y=74.5295
C9742	VDD3A#66	GNDA	9.57442e-17	$X=228.876 $Y=74.5295
C9743	VDD3A#75	GNDA	6.59265e-17	$X=230.831 $Y=198.1295
C9744	VDD3A#71	GNDA	9.34964e-17	$X=240.116 $Y=198.129
C9745	VDD3A#80	GNDA	6.35847e-17	$X=230.831 $Y=74.5295
C9746	VDD3A#76	GNDA	9.57702e-17	$X=240.116 $Y=74.5295
C9747	VDD3A#85	GNDA	6.28631e-17	$X=242.071 $Y=198.1295
C9748	VDD3A#81	GNDA	9.39496e-17	$X=251.356 $Y=198.129
C9749	VDD3A#90	GNDA	6.35869e-17	$X=242.071 $Y=74.5295
C9750	VDD3A#86	GNDA	9.57702e-17	$X=251.356 $Y=74.5295
C9751	VDD3A#95	GNDA	6.28631e-17	$X=253.311 $Y=198.1295
C9752	VDD3A#91	GNDA	9.34964e-17	$X=262.596 $Y=198.129
C9753	VDD3A#100	GNDA	6.35869e-17	$X=253.311 $Y=74.5295
C9754	VDD3A#96	GNDA	9.57702e-17	$X=262.596 $Y=74.5295
C9755	VDD3A#105	GNDA	6.28631e-17	$X=264.551 $Y=198.1295
C9756	VDD3A#101	GNDA	9.34964e-17	$X=273.836 $Y=198.129
C9757	VDD3A#110	GNDA	6.35869e-17	$X=264.551 $Y=74.5295
C9758	VDD3A#106	GNDA	9.57702e-17	$X=273.836 $Y=74.5295
C9759	VDD3A#115	GNDA	6.28631e-17	$X=275.791 $Y=198.1295
C9760	VDD3A#111	GNDA	9.39496e-17	$X=285.076 $Y=198.129
C9761	VDD3A#120	GNDA	6.35869e-17	$X=275.791 $Y=74.5295
C9762	VDD3A#116	GNDA	9.57702e-17	$X=285.076 $Y=74.5295
C9763	VDD3A#125	GNDA	6.28631e-17	$X=287.031 $Y=198.1295
C9764	VDD3A#121	GNDA	8.92664e-17	$X=296.316 $Y=198.129
C9765	VDD3A#130	GNDA	6.35869e-17	$X=287.031 $Y=74.5295
C9766	VDD3A#126	GNDA	9.57702e-17	$X=296.316 $Y=74.5295
C9767	VDD3A#135	GNDA	6.28631e-17	$X=298.271 $Y=198.1295
C9768	VDD3A#131	GNDA	8.92664e-17	$X=307.556 $Y=198.129
C9769	VDD3A#140	GNDA	6.35869e-17	$X=298.271 $Y=74.5295
C9770	VDD3A#136	GNDA	9.57702e-17	$X=307.556 $Y=74.5295
C9771	VDD3A#145	GNDA	6.28631e-17	$X=309.511 $Y=198.1295
C9772	VDD3A#150	GNDA	6.35869e-17	$X=309.511 $Y=74.5295
C9773	D<5>#6	GNDA	2.49649e-16	$X=321.3895 $Y=38.336
C9774	VDD3A#155	GNDA	6.28631e-17	$X=320.751 $Y=198.1295
C9775	VDD3A#151	GNDA	9.11793e-17	$X=330.036 $Y=198.129
C9776	VDD3A#164	GNDA	6.51148e-17	$X=320.751 $Y=74.5295
C9777	VDD3A#160	GNDA	1.07317e-16	$X=330.036 $Y=74.5295
C9778	D<4>#6	GNDA	2.45923e-16	$X=330.6495 $Y=38.336
C9779	D<3>#6	GNDA	2.46059e-16	$X=339.9095 $Y=38.336
C9780	VDD3A#169	GNDA	6.28631e-17	$X=331.991 $Y=198.1295
C9781	VDD3A#165	GNDA	9.34964e-17	$X=341.276 $Y=198.129
C9782	VDD3A#178	GNDA	6.51148e-17	$X=331.991 $Y=74.5295
C9783	VDD3A#174	GNDA	1.07317e-16	$X=341.276 $Y=74.5295
C9784	D<2>#6	GNDA	2.45923e-16	$X=349.1695 $Y=38.336
C9785	VDD3A#183	GNDA	6.28631e-17	$X=343.231 $Y=198.1295
C9786	VDD3A#179	GNDA	9.38698e-17	$X=352.516 $Y=198.129
C9787	VDD3A#192	GNDA	6.51148e-17	$X=343.231 $Y=74.5295
C9788	VDD3A#188	GNDA	1.07317e-16	$X=352.516 $Y=74.5295
C9789	D<1>#6	GNDA	2.45923e-16	$X=358.4295 $Y=38.336
C9790	VDD3A#197	GNDA	6.28631e-17	$X=354.471 $Y=198.1295
C9791	VDD3A#193	GNDA	9.39496e-17	$X=363.756 $Y=198.129
C9792	VDD3A#206	GNDA	6.51148e-17	$X=354.471 $Y=74.5295
C9793	VDD3A#202	GNDA	1.07317e-16	$X=363.756 $Y=74.5295
C9794	D<0>#6	GNDA	2.45924e-16	$X=367.6895 $Y=38.336
C9795	VDD3A#211	GNDA	6.28631e-17	$X=365.711 $Y=198.1295
C9796	VDD3A#207	GNDA	9.39496e-17	$X=374.996 $Y=198.129
C9797	VDD3A#220	GNDA	6.51148e-17	$X=365.711 $Y=74.5295
C9798	VDD3A#216	GNDA	1.07317e-16	$X=374.996 $Y=74.5295
C9799	VDD3A#225	GNDA	6.28631e-17	$X=376.951 $Y=198.1295
C9800	VDD3A#221	GNDA	7.36383e-17	$X=386.236 $Y=198.129
C9801	VDD3A#254	GNDA	6.51148e-17	$X=376.951 $Y=74.5295
C9802	VDD3A#250	GNDA	7.32146e-17	$X=386.236 $Y=74.5295
C9803	ENABLE#9	GNDA	1.04233e-16	$X=426.5945 $Y=100.487
C9804	ENABLE#11	GNDA	8.38859e-17	$X=426.5945 $Y=101.8825
C9805	ENABLE#17	GNDA	1.73771e-16	$X=427.039 $Y=105.2945
C9806	ENABLE#19	GNDA	9.12908e-17	$X=426.6195 $Y=108.016
C9807	ENABLE#13	GNDA	1.10951e-16	$X=427.4595 $Y=107.602
C9808	PULSE_ACTIVE#1	GNDA	1.2339e-16	$X=430.7545 $Y=100.487
C9809	PULSE_ACTIVE#3	GNDA	8.10985e-17	$X=430.7545 $Y=101.8825
C9810	PULSE_ACTIVE#9	GNDA	1.50073e-16	$X=431.1995 $Y=105.2945
C9811	PULSE_ACTIVE#11	GNDA	8.63947e-17	$X=430.7795 $Y=108.016
C9812	PULSE_ACTIVE#5	GNDA	1.27151e-16	$X=431.6195 $Y=107.602
C9813	XI1/net16#3	GNDA	1.2255e-16	$X=437.3145 $Y=105.0225
C9814	XI1/net16#4	GNDA	2.68113e-16	$X=438.649 $Y=105.6845
C9815	XI1/net16#11	GNDA	1.50624e-16	$X=439.9845 $Y=105.023
C9816	XI1/net16#13	GNDA	2.07353e-16	$X=439.9845 $Y=102.1275
C9817	XI1/net16#10	GNDA	1.84054e-16	$X=439.0945 $Y=102.1275
C9818	XI1/net16#6	GNDA	1.84032e-16	$X=438.204 $Y=102.1275
C9819	BIAS2#7	GNDA	1.83138e-15	$X=435.679 $Y=88.205
C9820	BIAS2#1	GNDA	1.2897e-15	$X=425.139 $Y=87.957
C9821	VDD3A#255	GNDA	8.57365e-14	$X=496.4965 $Y=182.8915
C9822	XI1/net13#3	GNDA	1.25443e-16	$X=442.8895 $Y=105.0225
C9823	XI1/net13#4	GNDA	2.40742e-16	$X=444.224 $Y=105.6845
C9824	XI1/net13#11	GNDA	1.15328e-16	$X=445.5595 $Y=105.023
C9825	XI1/net13#13	GNDA	2.08887e-16	$X=445.559 $Y=102.1275
C9826	XI1/net13#10	GNDA	1.81459e-16	$X=444.669 $Y=102.1275
C9827	XI1/net13#6	GNDA	1.81437e-16	$X=443.7795 $Y=102.1275
C9828	VDD3A#260	GNDA	2.35742e-16	$X=453.104 $Y=171.729
C9829	VDD3A#266	GNDA	1.48971e-17	$X=453.104 $Y=149.729
C9830	BIAS2#14	GNDA	2.44551e-15	$X=461.4635 $Y=88.205
C9831	BIAS2#8	GNDA	1.81501e-15	$X=450.9235 $Y=87.957
C9832	BIAS2#21	GNDA	2.55701e-15	$X=487.188 $Y=88.205
C9833	BIAS2#15	GNDA	1.82596e-15	$X=476.6485 $Y=87.957
C9834	VDAC#3	GNDA	1.33787e-15	$X=521.3935 $Y=42.357
C9835	VDD3A#302	GNDA	1.5583e-16	$X=524.2785 $Y=92.167
C9836	VDAC#6	GNDA	1.19151e-15	$X=526.9335 $Y=42.357
C9837	VDD3A#308	GNDA	5.36137e-17	$X=528.2385 $Y=148.4515
C9838	XI1/net10#1	GNDA	1.02928e-15	$X=530.5185 $Y=92.167
C9839	VDAC#9	GNDA	1.19151e-15	$X=532.4735 $Y=42.357
C9840	XI1/net4#4	GNDA	2.75371e-16	$X=534.4785 $Y=148.4515
C9841	XI1/net4#10	GNDA	3.05042e-16	$X=540.7185 $Y=148.4515
C9842	XI1/net10#7	GNDA	1.03053e-15	$X=542.9985 $Y=92.167
C9843	VDAC#15	GNDA	1.19151e-15	$X=543.5535 $Y=42.357
C9844	XI1/net4#16	GNDA	3.05042e-16	$X=546.9585 $Y=148.4515
C9845	VDAC#18	GNDA	1.19151e-15	$X=549.0935 $Y=42.357
C9846	XI1/net6#10	GNDA	1.03053e-15	$X=549.2385 $Y=92.167
C9847	XI1/net4#22	GNDA	3.05042e-16	$X=553.1985 $Y=148.4515
C9848	VDAC#21	GNDA	1.19151e-15	$X=554.6335 $Y=42.357
C9849	XI1/net10#13	GNDA	1.03053e-15	$X=555.4785 $Y=92.167
C9850	XI1/net4#28	GNDA	3.05042e-16	$X=559.4385 $Y=148.4515
C9851	VDAC#24	GNDA	1.19151e-15	$X=560.1735 $Y=42.357
C9852	XI1/net6#16	GNDA	1.03053e-15	$X=561.7185 $Y=92.167
C9853	XI1/net10#19	GNDA	1.03053e-15	$X=567.9585 $Y=92.167
C9854	XI1/net4#40	GNDA	4.16421e-17	$X=571.9185 $Y=148.4515
C9855	XI1/net6#22	GNDA	1.03053e-15	$X=574.1985 $Y=92.167
C9856	XI1/net1#28	GNDA	1.24288e-15	$X=575.6735 $Y=42.357
C9857	XI1/net4#46	GNDA	2.634e-16	$X=578.1585 $Y=148.4515
C9858	XI1/net10#25	GNDA	1.03053e-15	$X=580.4385 $Y=92.167
C9859	XI1/net1#31	GNDA	1.18108e-15	$X=581.2135 $Y=42.357
C9860	XI1/net4#52	GNDA	3.05042e-16	$X=584.3985 $Y=148.4515
C9861	XI1/net6#28	GNDA	1.03053e-15	$X=586.6785 $Y=92.167
C9862	XI1/net1#34	GNDA	1.18108e-15	$X=586.7535 $Y=42.357
C9863	XI1/net4#58	GNDA	3.05042e-16	$X=590.6385 $Y=148.4515
C9864	XI1/net4#64	GNDA	3.05042e-16	$X=596.8785 $Y=148.4515
C9865	XI1/net1#40	GNDA	1.18108e-15	$X=597.8335 $Y=42.357
C9866	XI1/net6#34	GNDA	1.03053e-15	$X=599.1585 $Y=92.167
C9867	XI1/net4#70	GNDA	3.05042e-16	$X=603.1185 $Y=148.4515
C9868	XI1/net1#43	GNDA	1.18108e-15	$X=603.3735 $Y=42.357
C9869	XI1/net10#37	GNDA	1.03053e-15	$X=605.3985 $Y=92.167
C9870	XI1/net1#46	GNDA	1.18108e-15	$X=608.9135 $Y=42.357
C9871	XI1/net4#76	GNDA	3.17014e-16	$X=609.3585 $Y=148.4515
C9872	XI1/net6#40	GNDA	1.02911e-15	$X=611.6385 $Y=92.167
C9873	XI1/net1#49	GNDA	1.18108e-15	$X=614.4535 $Y=42.357
C9874	VDD3A#334	GNDA	5.36137e-17	$X=615.5985 $Y=148.4515
C9875	XI1/net7#4	GNDA	3.20164e-16	$X=644.754 $Y=41.632
C9876	XI1/net7#10	GNDA	2.23814e-16	$X=646.994 $Y=41.632
C9877	XI1/net9#4	GNDA	1.84169e-16	$X=661.489 $Y=41.982
C9878	XI1/net9#7	GNDA	1.82302e-16	$X=662.529 $Y=41.982
C9879	XI1/net9#10	GNDA	2.27469e-16	$X=663.569 $Y=41.982
C9880	XI1/VB#9	GNDA	2.47302e-16	$X=694.0895 $Y=52.1745
C9881	XI1/VB#13	GNDA	1.96033e-16	$X=695.794 $Y=52.6815
C9882	XI1/VB#6	GNDA	2.43089e-16	$X=694.0895 $Y=86.0445
C9883	XI1/VB#12	GNDA	5.30153e-17	$X=694.8815 $Y=52.1745
C9884	XI1/VB#3	GNDA	1.62862e-17	$X=694.715 $Y=85.9845
C9885	XI1/VB#18	GNDA	2.32244e-16	$X=695.254 $Y=86.017
C9886	XI1/VB#7	GNDA	2.31338e-15	$X=693.263 $Y=76.995
C9887	XI1/VB#8	GNDA	2.30429e-15	$X=693.263 $Y=61.225
C9888	XI1/VA#5	GNDA	1.5139e-17	$X=849.6845 $Y=160.02
C9889	XI1/VA#7	GNDA	1.82885e-16	$X=850.109 $Y=158.8795
C9890	XI1/VA#19	GNDA	1.46761e-17	$X=849.6845 $Y=148.12
C9891	XI1/VA#21	GNDA	1.82885e-16	$X=850.109 $Y=146.9795
C9892	XI1/VA#28	GNDA	4.5104e-16	$X=899.5805 $Y=149.774
C9893	XI1/VA#33	GNDA	1.46761e-17	$X=849.6845 $Y=136.22
C9894	XI1/VA#35	GNDA	1.82885e-16	$X=850.109 $Y=135.0795
C9895	XI1/VA#42	GNDA	4.51005e-16	$X=899.5805 $Y=137.8745
C9896	XI1/VA#47	GNDA	1.46761e-17	$X=849.6845 $Y=124.32
C9897	XI1/VA#49	GNDA	1.82885e-16	$X=850.109 $Y=123.1795
C9898	XI1/VA#61	GNDA	1.46761e-17	$X=849.6845 $Y=112.42
C9899	XI1/VA#63	GNDA	1.82885e-16	$X=850.109 $Y=111.2795
C9900	XI1/VA#70	GNDA	4.51803e-16	$X=899.5805 $Y=114.0745
C9901	XI1/VA#78	GNDA	1.82885e-16	$X=850.109 $Y=99.3795
C9902	XI1/VA#75	GNDA	1.46761e-17	$X=849.6845 $Y=100.52
C9903	XI1/VA#89	GNDA	1.46761e-17	$X=849.6845 $Y=88.62
C9904	XI1/VA#91	GNDA	1.82885e-16	$X=850.109 $Y=87.4795
C9905	XI1/VA#103	GNDA	1.46761e-17	$X=849.6845 $Y=76.72
C9906	XI1/VA#105	GNDA	1.85342e-16	$X=850.109 $Y=75.5795
C9907	ENABLE#55	GNDA	1.63036e-15	$X=97.102 $Y=101.0995
C9908	ENABLE#53	GNDA	5.42418e-16	$X=84.7265 $Y=101.0995
C9909	XI0/net9#320	GNDA	2.13588e-17	$X=111.5445 $Y=89.6845
C9910	XI0/net9#313	GNDA	1.13792e-16	$X=113.3245 $Y=87.28
C9911	XI0/net12#335	GNDA	1.42625e-14	$X=115.178 $Y=124.991
C9912	XI0/net7#1022	GNDA	4.0509e-15	$X=113.6575 $Y=123.8045
C9913	VREF#193	GNDA	2.22161e-15	$X=146.035 $Y=135.6245
C9914	VREF#194	GNDA	9.82849e-15	$X=111.091 $Y=135.6245
C9915	XI0/net14#260	GNDA	3.41778e-15	$X=154.835 $Y=123.6435
C9916	XI0/net14#243	GNDA	2.43117e-15	$X=82.879 $Y=136.4045
C9917	XI0/net14#244	GNDA	9.78624e-15	$X=118.1715 $Y=136.4045
C9918	XI0/net7#1037	GNDA	3.87146e-15	$X=127.177 $Y=147.0575
C9919	XI0/net6#54	GNDA	4.31343e-15	$X=198.551 $Y=136.504
C9920	XI0/net7#1050	GNDA	2.66943e-15	$X=200.831 $Y=136.504
C9921	XI0/net1#77	GNDA	6.96448e-15	$X=203.111 $Y=136.504
C9922	XI0/net2#93	GNDA	7.4905e-15	$X=205.391 $Y=136.504
C9923	XI0/net3#131	GNDA	4.0948e-15	$X=207.671 $Y=136.504
C9924	XI0/net4#207	GNDA	6.59852e-15	$X=223.2355 $Y=104.3835
C9925	XI0/net7#1059	GNDA	2.73047e-15	$X=394.2845 $Y=136.504
C9926	XI0/net3#147	GNDA	6.57928e-15	$X=396.144 $Y=103.239
C9927	XI0/net4#225	GNDA	4.52316e-15	$X=403.4045 $Y=136.504
C9928	XI0/net5#377	GNDA	4.21993e-15	$X=405.6845 $Y=136.504
C9929	XI0/net19#139	GNDA	6.32448e-15	$X=407.964 $Y=136.504
C9930	ENABLE#59	GNDA	5.40506e-15	$X=422.695 $Y=102.5995
C9931	PULSE_ACTIVE#29	GNDA	7.80136e-16	$X=428.224 $Y=102.6245
C9932	VDAC#426	GNDA	5.31644e-15	$X=118.9235 $Y=71.522
C9933	VDAC#431	GNDA	1.05115e-14	$X=319.903 $Y=23.7505
C9934	VDAC#439	GNDA	1.13038e-16	$X=117.1495 $Y=87.2995
C9935	VDAC#438	GNDA	4.00492e-16	$X=118.9295 $Y=84.6695
C9936	VDAC#432	GNDA	1.11816e-14	$X=478.3015 $Y=26.963
C9937	XI1/VB#85	GNDA	1.23507e-14	$X=545.5935 $Y=28.272
C9938	CUR_OUT#516	GNDA	5.33646e-18	$X=928.714 $Y=171.919
*
*
.ENDS pulse_generator
*
