*
*
*
*                       LINUX           Mon Jun 24 11:07:34 2024
*
*
*
*  PROGRAM  advgen
*
*  Name           : advgen - Quantus - (64-bit)
*  Version        : 23.1.0-p075
*  Build Date     : Tue Sep 26 09:11:43 PDT 2023
*
*  HSPICE LIBRARY
*
* GLOBAL_TEMPERATURE 27
*  OPERATING_TEMPERATURE 27
*  QRC_TECH_DIR /home/saul/pkg/xfab/XKIT/xh018/cadence/v9_0/QRC_pvs/v9_0_1/XH018_1143/QRC-Typ 
*
*!LENGTH_UNITS METERS
*
*
*
*
*       SUBCIRCUIT DEFINITIONS
*
.SUBCKT MOSVC3 G NW SB
.ENDS
*
.SUBCKT NE3I_6 D G S B NW SB
.ENDS
*

*
.SUBCKT ref_bias BIAS GNDA OUT1 OUT2 RES_BIAS VDDA VREF
*
*
*  caps2d version: 10
*
*       SUBCIRCUIT CALLS
*
XXC2 OUT2#13 GNDA GNDA MOSVC3
+ w=3e-05 l=3e-05 model=mosvc3
XXC2@1 OUT2#8 GNDA GNDA MOSVC3
+ w=3e-05 l=3e-05 model=mosvc3
XXC2@2 OUT2#3 GNDA GNDA MOSVC3
+ w=3e-05 l=3e-05 model=mosvc3
XXC0 OUT1#13 GNDA GNDA MOSVC3
+ w=3e-05 l=3e-05 model=mosvc3
XXC0@1 OUT1#8 GNDA GNDA MOSVC3
+ w=3e-05 l=3e-05 model=mosvc3
XXC0@2 OUT1#3 GNDA GNDA MOSVC3
+ w=3e-05 l=3e-05 model=mosvc3
XXM7@1 COM#159 COM#8 COM#151 COM VDDA GNDA NE3I_6	L=2e-06	W=1e-05
+ AD=4.8e-12	AS=4.8e-12	PD=2.096e-05	PS=2.096e-05
+ NRD=0.0173	NRS=0.0173
XXM12@10 net4#100 VREF#28 COM#143 COM VDDA GNDA NE3I_6	L=2e-06	W=1e-05
+ AD=4.8e-12	AS=4.8e-12	PD=2.096e-05	PS=2.096e-05
+ NRD=0.0173	NRS=0.0173
XXM7@3 COM#157 COM#6 COM#149 COM VDDA GNDA NE3I_6	L=2e-06	W=1e-05
+ AD=4.8e-12	AS=4.8e-12	PD=2.096e-05	PS=2.096e-05
+ NRD=0.0173	NRS=0.0173
XXM24@11 net6#108 RES_BIAS#28 COM#141 COM VDDA GNDA NE3I_6	L=2e-06	W=1e-05
+ AD=4.8e-12	AS=4.8e-12	PD=2.096e-05	PS=2.096e-05
+ NRD=0.0173	NRS=0.0173
XXM24@10 net6#106 RES_BIAS#26 COM#132 COM VDDA GNDA NE3I_6	L=2e-06	W=1e-05
+ AD=4.8e-12	AS=4.8e-12	PD=2.096e-05	PS=2.096e-05
+ NRD=0.0173	NRS=0.0173
XXM12@7 net4#96 VREF#24 COM#121 COM VDDA GNDA NE3I_6	L=2e-06	W=1e-05
+ AD=4.8e-12	AS=4.8e-12	PD=2.096e-05	PS=2.096e-05
+ NRD=0.0173	NRS=0.0173
XXM12@11 net4#98 VREF#26 COM#130 COM VDDA GNDA NE3I_6	L=2e-06	W=1e-05
+ AD=4.8e-12	AS=4.8e-12	PD=2.096e-05	PS=2.096e-05
+ NRD=0.0173	NRS=0.0173
XXM24@7 net6#104 RES_BIAS#24 COM#119 COM VDDA GNDA NE3I_6	L=2e-06	W=1e-05
+ AD=4.8e-12	AS=4.8e-12	PD=2.096e-05	PS=2.096e-05
+ NRD=0.0173	NRS=0.0173
XXM24@9 net6#91 RES_BIAS#22 COM#113 COM VDDA GNDA NE3I_6	L=2e-06	W=1e-05
+ AD=4.8e-12	AS=4.8e-12	PD=2.096e-05	PS=2.096e-05
+ NRD=0.0173	NRS=0.0173
XXM12@1 net4#89 VREF#20 COM#102 COM VDDA GNDA NE3I_6	L=2e-06	W=1e-05
+ AD=4.8e-12	AS=4.8e-12	PD=2.096e-05	PS=2.096e-05
+ NRD=0.0173	NRS=0.0173
XXM12@4 net4#91 VREF#22 COM#111 COM VDDA GNDA NE3I_6	L=2e-06	W=1e-05
+ AD=4.8e-12	AS=4.8e-12	PD=2.096e-05	PS=2.096e-05
+ NRD=0.0173	NRS=0.0173
XXM24@1 net6#89 RES_BIAS#20 COM#100 COM VDDA GNDA NE3I_6	L=2e-06	W=1e-05
+ AD=4.8e-12	AS=4.8e-12	PD=2.096e-05	PS=2.096e-05
+ NRD=0.0173	NRS=0.0173
XXM24 net6#87 RES_BIAS#18 COM#91 COM VDDA GNDA NE3I_6	L=2e-06	W=1e-05
+ AD=4.8e-12	AS=4.8e-12	PD=2.096e-05	PS=2.096e-05
+ NRD=0.0173	NRS=0.0173
XXM12@12 net4#82 VREF#16 COM#83 COM VDDA GNDA NE3I_6	L=2e-06	W=1e-05
+ AD=4.8e-12	AS=4.8e-12	PD=2.096e-05	PS=2.096e-05
+ NRD=0.0173	NRS=0.0173
XXM12@9 net4#87 VREF#18 COM#89 COM VDDA GNDA NE3I_6	L=2e-06	W=1e-05
+ AD=4.8e-12	AS=4.8e-12	PD=2.096e-05	PS=2.096e-05
+ NRD=0.0173	NRS=0.0173
XXM24@12 net6#74 RES_BIAS#16 COM#81 COM VDDA GNDA NE3I_6	L=2e-06	W=1e-05
+ AD=4.8e-12	AS=4.8e-12	PD=2.096e-05	PS=2.096e-05
+ NRD=0.0173	NRS=0.0173
XXM24@2 net6#72 RES_BIAS#14 COM#75 COM VDDA GNDA NE3I_6	L=2e-06	W=1e-05
+ AD=4.8e-12	AS=4.8e-12	PD=2.096e-05	PS=2.096e-05
+ NRD=0.0173	NRS=0.0173
XXM12@2 net4#78 VREF#12 COM#67 COM VDDA GNDA NE3I_6	L=2e-06	W=1e-05
+ AD=4.8e-12	AS=4.8e-12	PD=2.096e-05	PS=2.096e-05
+ NRD=0.0173	NRS=0.0173
XXM12@13 net4#80 VREF#14 COM#73 COM VDDA GNDA NE3I_6	L=2e-06	W=1e-05
+ AD=4.8e-12	AS=4.8e-12	PD=2.096e-05	PS=2.096e-05
+ NRD=0.0173	NRS=0.0173
XXM24@8 net6#70 RES_BIAS#12 COM#65 COM VDDA GNDA NE3I_6	L=2e-06	W=1e-05
+ AD=4.8e-12	AS=4.8e-12	PD=2.096e-05	PS=2.096e-05
+ NRD=0.0173	NRS=0.0173
XXM24@13 net6#57 RES_BIAS#10 COM#59 COM VDDA GNDA NE3I_6	L=2e-06	W=1e-05
+ AD=4.8e-12	AS=4.8e-12	PD=2.096e-05	PS=2.096e-05
+ NRD=0.0173	NRS=0.0173
XXM12@5 net4#71 VREF#8 COM#51 COM VDDA GNDA NE3I_6	L=2e-06	W=1e-05
+ AD=4.8e-12	AS=4.8e-12	PD=2.096e-05	PS=2.096e-05
+ NRD=0.0173	NRS=0.0173
XXM12@3 net4#73 VREF#10 COM#57 COM VDDA GNDA NE3I_6	L=2e-06	W=1e-05
+ AD=4.8e-12	AS=4.8e-12	PD=2.096e-05	PS=2.096e-05
+ NRD=0.0173	NRS=0.0173
XXM24@5 net6#55 RES_BIAS#8 COM#49 COM VDDA GNDA NE3I_6	L=2e-06	W=1e-05
+ AD=4.8e-12	AS=4.8e-12	PD=2.096e-05	PS=2.096e-05
+ NRD=0.0173	NRS=0.0173
XXM24@6 net6#53 RES_BIAS#6 COM#43 COM VDDA GNDA NE3I_6	L=2e-06	W=1e-05
+ AD=4.8e-12	AS=4.8e-12	PD=2.096e-05	PS=2.096e-05
+ NRD=0.0173	NRS=0.0173
XXM12 net4#67 VREF#4 COM#35 COM VDDA GNDA NE3I_6	L=2e-06	W=1e-05
+ AD=4.8e-12	AS=4.8e-12	PD=2.096e-05	PS=2.096e-05
+ NRD=0.0173	NRS=0.0173
XXM12@6 net4#69 VREF#6 COM#41 COM VDDA GNDA NE3I_6	L=2e-06	W=1e-05
+ AD=4.8e-12	AS=4.8e-12	PD=2.096e-05	PS=2.096e-05
+ NRD=0.0173	NRS=0.0173
XXM24@3 net6#51 RES_BIAS#4 COM#33 COM VDDA GNDA NE3I_6	L=2e-06	W=1e-05
+ AD=4.8e-12	AS=4.8e-12	PD=2.096e-05	PS=2.096e-05
+ NRD=0.0173	NRS=0.0173
XXM24@4 net6#49 RES_BIAS#2 COM#27 COM VDDA GNDA NE3I_6	L=2e-06	W=1e-05
+ AD=4.8e-12	AS=4.8e-12	PD=2.096e-05	PS=2.096e-05
+ NRD=0.0173	NRS=0.0173
XXM7 COM#19 COM#4 COM#11 COM VDDA GNDA NE3I_6	L=2e-06	W=1e-05
+ AD=4.8e-12	AS=4.8e-12	PD=2.096e-05	PS=2.096e-05
+ NRD=0.0173	NRS=0.0173
XXM12@8 net4#65 VREF#2 COM#25 COM VDDA GNDA NE3I_6	L=2e-06	W=1e-05
+ AD=4.8e-12	AS=4.8e-12	PD=2.096e-05	PS=2.096e-05
+ NRD=0.0173	NRS=0.0173
XXM7@2 COM#17 COM#2 COM#9 COM VDDA GNDA NE3I_6	L=2e-06	W=1e-05
+ AD=4.8e-12	AS=4.8e-12	PD=2.096e-05	PS=2.096e-05
+ NRD=0.0173	NRS=0.0173
*
*       TRANSISTOR CARDS
*
*
MMM8@3	COM#93	BIAS#18	net5#7	GNDA	ne3	L=2e-06	W=1e-05
+ AD=2.7e-12	AS=4.8e-12	PD=1.054e-05	PS=2.096e-05
+ NRD=0.0173	NRS=0.0173
MMM8@2	COM#93	BIAS#20	net5#10	GNDA	ne3	L=2e-06
+ W=1e-05
+ AD=2.7e-12	AS=2.7e-12	PD=1.054e-05	PS=1.054e-05
+ NRD=0.0173	NRS=0.0173
MMM8@4	COM#108	BIAS#22	net5#10	GNDA	ne3	L=2e-06
+ W=1e-05
+ AD=2.7e-12	AS=2.7e-12	PD=1.054e-05	PS=1.054e-05
+ NRD=0.0173	NRS=0.0173
MMM8	COM#108	BIAS#24	net5#16	GNDA	ne3	L=2e-06
+ W=1e-05
+ AD=2.7e-12	AS=2.7e-12	PD=1.054e-05	PS=1.054e-05
+ NRD=0.0173	NRS=0.0173
MMM8@5	COM#123	BIAS#26	net5#16	GNDA	ne3	L=2e-06
+ W=1e-05
+ AD=2.7e-12	AS=2.7e-12	PD=1.054e-05	PS=1.054e-05
+ NRD=0.0173	NRS=0.0173
MMM8@7	COM#123	BIAS#28	net5#22	GNDA	ne3	L=2e-06
+ W=1e-05
+ AD=2.7e-12	AS=2.7e-12	PD=1.054e-05	PS=1.054e-05
+ NRD=0.0173	NRS=0.0173
MMM8@1	COM#138	BIAS#30	net5#22	GNDA	ne3	L=2e-06
+ W=1e-05
+ AD=2.7e-12	AS=2.7e-12	PD=1.054e-05	PS=1.054e-05
+ NRD=0.0173	NRS=0.0173
MMM8@6	COM#138	BIAS#32	net5#25	GNDA	ne3	L=2e-06
+ W=1e-05
+ AD=2.7e-12	AS=4.8e-12	PD=1.054e-05	PS=2.096e-05
+ NRD=0.0173	NRS=0.0173
MMM9@2	BIAS#37	BIAS#2	net123#19	GNDA	ne3	L=2e-06
+ W=1e-05
+ AD=2.7e-12	AS=4.8e-12	PD=1.054e-05	PS=2.096e-05
+ NRD=0.0173	NRS=0.0173
MMM9@3	BIAS#37	BIAS#4	net123#22	GNDA	ne3	L=2e-06
+ W=1e-05
+ AD=2.7e-12	AS=2.7e-12	PD=1.054e-05	PS=1.054e-05
+ NRD=0.0173	NRS=0.0173
MMM9@4	BIAS#48	BIAS#6	net123#22	GNDA	ne3	L=2e-06
+ W=1e-05
+ AD=2.7e-12	AS=2.7e-12	PD=1.054e-05	PS=1.054e-05
+ NRD=0.0173	NRS=0.0173
MMM9	BIAS#48	BIAS#8	net123#25	GNDA	ne3	L=2e-06
+ W=1e-05
+ AD=2.7e-12	AS=2.7e-12	PD=1.054e-05	PS=1.054e-05
+ NRD=0.0173	NRS=0.0173
MMM9@6	BIAS#59	BIAS#10	net123#25	GNDA	ne3	L=2e-06
+ W=1e-05
+ AD=2.7e-12	AS=2.7e-12	PD=1.054e-05	PS=1.054e-05
+ NRD=0.0173	NRS=0.0173
MMM9@5	BIAS#59	BIAS#12	net123#39	GNDA	ne3	L=2e-06
+ W=1e-05
+ AD=2.7e-12	AS=2.7e-12	PD=1.054e-05	PS=1.054e-05
+ NRD=0.0173	NRS=0.0173
MMM9@1	BIAS#70	BIAS#14	net123#39	GNDA	ne3	L=2e-06
+ W=1e-05
+ AD=2.7e-12	AS=2.7e-12	PD=1.054e-05	PS=1.054e-05
+ NRD=0.0173	NRS=0.0173
MMM9@7	BIAS#70	BIAS#16	net123#53	GNDA	ne3	L=2e-06
+ W=1e-05
+ AD=2.7e-12	AS=4.8e-12	PD=1.054e-05	PS=2.096e-05
+ NRD=0.0173	NRS=0.0173
MMM10@3	GNDA#82	GNDA#8	GNDA#68	GNDA	ne3	L=5e-06
+ W=1e-05
+ AD=4.8e-12	AS=4.8e-12	PD=2.096e-05	PS=2.096e-05
+ NRD=0.0173	NRS=0.0173
MMM10	GNDA#85	GNDA#10	GNDA#71	GNDA	ne3	L=5e-06
+ W=1e-05
+ AD=4.8e-12	AS=4.8e-12	PD=2.096e-05	PS=2.096e-05
+ NRD=0.0173	NRS=0.0173
MMM10@1	GNDA#65	GNDA#6	GNDA#55	GNDA	ne3	L=5e-06
+ W=1e-05
+ AD=4.8e-12	AS=4.8e-12	PD=2.096e-05	PS=2.096e-05
+ NRD=0.0173	NRS=0.0173
MMM25@1	net5#19	net123#18	GNDA#58	GNDA	ne3	L=5e-06
+ W=1e-05
+ AD=4.8e-12	AS=4.8e-12	PD=2.096e-05	PS=2.096e-05
+ NRD=0.0173	NRS=0.0173
MMM25	net5#13	net123#14	GNDA#49	GNDA	ne3	L=5e-06
+ W=1e-05
+ AD=4.8e-12	AS=4.8e-12	PD=2.096e-05	PS=2.096e-05
+ NRD=0.0173	NRS=0.0173
MMM13@2	net123#75	net123#16	GNDA#52	GNDA	ne3	L=5e-06
+ W=1e-05
+ AD=4.8e-12	AS=4.8e-12	PD=2.096e-05	PS=2.096e-05
+ NRD=0.0173	NRS=0.0173
MMM13	net123#64	net123#10	GNDA#43	GNDA	ne3	L=5e-06
+ W=1e-05
+ AD=4.8e-12	AS=4.8e-12	PD=2.096e-05	PS=2.096e-05
+ NRD=0.0173	NRS=0.0173
MMM26	net7#69	net123#12	GNDA#46	GNDA	ne3	L=5e-06
+ W=1e-05
+ AD=4.8e-12	AS=4.8e-12	PD=2.096e-05	PS=2.096e-05
+ NRD=0.0173	NRS=0.0173
MMM25@3	net5#4	net123#6	GNDA#37	GNDA	ne3	L=5e-06
+ W=1e-05
+ AD=4.8e-12	AS=4.8e-12	PD=2.096e-05	PS=2.096e-05
+ NRD=0.0173	NRS=0.0173
MMM13@1	net123#50	net123#8	GNDA#40	GNDA	ne3	L=5e-06
+ W=1e-05
+ AD=4.8e-12	AS=4.8e-12	PD=2.096e-05	PS=2.096e-05
+ NRD=0.0173	NRS=0.0173
MMM13@3	net123#36	net123#2	GNDA#31	GNDA	ne3	L=5e-06
+ W=1e-05
+ AD=4.8e-12	AS=4.8e-12	PD=2.096e-05	PS=2.096e-05
+ NRD=0.0173	NRS=0.0173
MMM25@2	net5	net123#4	GNDA#34	GNDA	ne3	L=5e-06
+ W=1e-05
+ AD=4.8e-12	AS=4.8e-12	PD=2.096e-05	PS=2.096e-05
+ NRD=0.0173	NRS=0.0173
MMM10@4	GNDA#25	GNDA#2	GNDA#11	GNDA	ne3	L=5e-06
+ W=1e-05
+ AD=4.8e-12	AS=4.8e-12	PD=2.096e-05	PS=2.096e-05
+ NRD=0.0173	NRS=0.0173
MMM10@2	GNDA#28	GNDA#4	GNDA#14	GNDA	ne3	L=5e-06
+ W=1e-05
+ AD=4.8e-12	AS=4.8e-12	PD=2.096e-05	PS=2.096e-05
+ NRD=0.0173	NRS=0.0173
MMM2@5	net2#43	net4#58	VDDA#284	VDDA	pe3	L=2e-06
+ W=1e-05
+ AD=4.8e-12	AS=4.8e-12	PD=2.096e-05	PS=2.096e-05
+ NRD=0.0173	NRS=0.0173
MMM14@8	net8#52	net4#54	VDDA#278	VDDA	pe3	L=2e-06
+ W=1e-05
+ AD=4.8e-12	AS=4.8e-12	PD=2.096e-05	PS=2.096e-05
+ NRD=0.0173	NRS=0.0173
MMM4	net1#22	net4#50	VDDA#272	VDDA	pe3	L=2e-06
+ W=1e-05
+ AD=4.8e-12	AS=4.8e-12	PD=2.096e-05	PS=2.096e-05
+ NRD=0.0173	NRS=0.0173
MMM14@1	net8#49	net4#46	VDDA#266	VDDA	pe3	L=2e-06
+ W=1e-05
+ AD=4.8e-12	AS=4.8e-12	PD=2.096e-05	PS=2.096e-05
+ NRD=0.0173	NRS=0.0173
MMM14@10	net8#55	net4#60	VDDA#287	VDDA	pe3
+ L=2e-06	W=1e-05
+ AD=4.8e-12	AS=4.8e-12	PD=2.096e-05	PS=2.096e-05
+ NRD=0.0173	NRS=0.0173
MMM4@8	net1#28	net4#56	VDDA#281	VDDA	pe3	L=2e-06
+ W=1e-05
+ AD=4.8e-12	AS=4.8e-12	PD=2.096e-05	PS=2.096e-05
+ NRD=0.0173	NRS=0.0173
MMM2@8	net2#40	net4#52	VDDA#275	VDDA	pe3	L=2e-06
+ W=1e-05
+ AD=4.8e-12	AS=4.8e-12	PD=2.096e-05	PS=2.096e-05
+ NRD=0.0173	NRS=0.0173
MMM2	net2#37	net4#48	VDDA#269	VDDA	pe3	L=2e-06
+ W=1e-05
+ AD=4.8e-12	AS=4.8e-12	PD=2.096e-05	PS=2.096e-05
+ NRD=0.0173	NRS=0.0173
MMM2@6	net2#31	net4#42	VDDA#260	VDDA	pe3	L=2e-06
+ W=1e-05
+ AD=4.8e-12	AS=4.8e-12	PD=2.096e-05	PS=2.096e-05
+ NRD=0.0173	NRS=0.0173
MMM14@6	net8#43	net4#38	VDDA#254	VDDA	pe3	L=2e-06
+ W=1e-05
+ AD=4.8e-12	AS=4.8e-12	PD=2.096e-05	PS=2.096e-05
+ NRD=0.0173	NRS=0.0173
MMM4@2	net1#16	net4#34	VDDA#248	VDDA	pe3	L=2e-06
+ W=1e-05
+ AD=4.8e-12	AS=4.8e-12	PD=2.096e-05	PS=2.096e-05
+ NRD=0.0173	NRS=0.0173
MMM14@9	net8#37	net4#30	VDDA#242	VDDA	pe3	L=2e-06
+ W=1e-05
+ AD=4.8e-12	AS=4.8e-12	PD=2.096e-05	PS=2.096e-05
+ NRD=0.0173	NRS=0.0173
MMM14	net8#46	net4#44	VDDA#263	VDDA	pe3	L=2e-06
+ W=1e-05
+ AD=4.8e-12	AS=4.8e-12	PD=2.096e-05	PS=2.096e-05
+ NRD=0.0173	NRS=0.0173
MMM4@1	net1#19	net4#40	VDDA#257	VDDA	pe3	L=2e-06
+ W=1e-05
+ AD=4.8e-12	AS=4.8e-12	PD=2.096e-05	PS=2.096e-05
+ NRD=0.0173	NRS=0.0173
MMM14@11	net8#40	net4#36	VDDA#251	VDDA	pe3
+ L=2e-06	W=1e-05
+ AD=4.8e-12	AS=4.8e-12	PD=2.096e-05	PS=2.096e-05
+ NRD=0.0173	NRS=0.0173
MMM2@4	net2#19	net4#32	VDDA#245	VDDA	pe3	L=2e-06
+ W=1e-05
+ AD=4.8e-12	AS=4.8e-12	PD=2.096e-05	PS=2.096e-05
+ NRD=0.0173	NRS=0.0173
MMM2@1	net2#13	net4#26	VDDA#236	VDDA	pe3	L=2e-06
+ W=1e-05
+ AD=4.8e-12	AS=4.8e-12	PD=2.096e-05	PS=2.096e-05
+ NRD=0.0173	NRS=0.0173
MMM14@2	net8#31	net4#22	VDDA#230	VDDA	pe3	L=2e-06
+ W=1e-05
+ AD=4.8e-12	AS=4.8e-12	PD=2.096e-05	PS=2.096e-05
+ NRD=0.0173	NRS=0.0173
MMM4@7	net1#10	net4#18	VDDA#224	VDDA	pe3	L=2e-06
+ W=1e-05
+ AD=4.8e-12	AS=4.8e-12	PD=2.096e-05	PS=2.096e-05
+ NRD=0.0173	NRS=0.0173
MMM4@3	net1#7	net4#14	VDDA#218	VDDA	pe3	L=2e-06
+ W=1e-05
+ AD=4.8e-12	AS=4.8e-12	PD=2.096e-05	PS=2.096e-05
+ NRD=0.0173	NRS=0.0173
MMM14@3	net8#34	net4#28	VDDA#239	VDDA	pe3	L=2e-06
+ W=1e-05
+ AD=4.8e-12	AS=4.8e-12	PD=2.096e-05	PS=2.096e-05
+ NRD=0.0173	NRS=0.0173
MMM4@6	net1#13	net4#24	VDDA#233	VDDA	pe3	L=2e-06
+ W=1e-05
+ AD=4.8e-12	AS=4.8e-12	PD=2.096e-05	PS=2.096e-05
+ NRD=0.0173	NRS=0.0173
MMM14@7	net8#28	net4#20	VDDA#227	VDDA	pe3	L=2e-06
+ W=1e-05
+ AD=4.8e-12	AS=4.8e-12	PD=2.096e-05	PS=2.096e-05
+ NRD=0.0173	NRS=0.0173
MMM2@2	net2#7	net4#16	VDDA#221	VDDA	pe3	L=2e-06
+ W=1e-05
+ AD=4.8e-12	AS=4.8e-12	PD=2.096e-05	PS=2.096e-05
+ NRD=0.0173	NRS=0.0173
MMM2@3	net2#4	net4#10	VDDA#212	VDDA	pe3	L=2e-06
+ W=1e-05
+ AD=4.8e-12	AS=4.8e-12	PD=2.096e-05	PS=2.096e-05
+ NRD=0.0173	NRS=0.0173
MMM14@4	net8#13	net4#6	VDDA#206	VDDA	pe3	L=2e-06
+ W=1e-05
+ AD=4.8e-12	AS=4.8e-12	PD=2.096e-05	PS=2.096e-05
+ NRD=0.0173	NRS=0.0173
MMM4@9	net1	net4#2	VDDA#199	VDDA	pe3	L=2e-06	W=1e-05
+ AD=4.8e-12	AS=4.8e-12	PD=2.096e-05	PS=2.096e-05
+ NRD=0.0173	NRS=0.0173
MMM6	VDDA#193	VDDA#14	VDDA#179	VDDA	pe3	L=2e-06
+ W=1e-05
+ AD=4.8e-12	AS=4.8e-12	PD=2.096e-05	PS=2.096e-05
+ NRD=0.0173	NRS=0.0173
MMM14@5	net8#19	net4#12	VDDA#215	VDDA	pe3	L=2e-06
+ W=1e-05
+ AD=4.8e-12	AS=4.8e-12	PD=2.096e-05	PS=2.096e-05
+ NRD=0.0173	NRS=0.0173
MMM4@4	net1#4	net4#8	VDDA#209	VDDA	pe3	L=2e-06	W=1e-05
+ AD=4.8e-12	AS=4.8e-12	PD=2.096e-05	PS=2.096e-05
+ NRD=0.0173	NRS=0.0173
MMM2@9	net2	net4#4	VDDA#202	VDDA	pe3	L=2e-06	W=1e-05
+ AD=4.8e-12	AS=4.8e-12	PD=2.096e-05	PS=2.096e-05
+ NRD=0.0173	NRS=0.0173
MMM6@2	VDDA#196	VDDA#16	VDDA#182	VDDA	pe3	L=2e-06
+ W=1e-05
+ AD=4.8e-12	AS=4.8e-12	PD=2.096e-05	PS=2.096e-05
+ NRD=0.0173	NRS=0.0173
MMM5	VDDA#125	VDDA#9	VDDA#113	VDDA	pe3	L=1e-05
+ W=1e-05
+ AD=4.8e-12	AS=4.8e-12	PD=2.096e-05	PS=2.096e-05
+ NRD=0.0173	NRS=0.0173
MMM23@4	net6#162	net6#45	VDDA#107	VDDA	pe3	L=1e-05
+ W=1e-05
+ AD=4.8e-12	AS=4.8e-12	PD=2.096e-05	PS=2.096e-05
+ NRD=0.0173	NRS=0.0173
MMM5@3	VDDA#129	VDDA#12	VDDA#116	VDDA	pe3	L=1e-05
+ W=1e-05
+ AD=4.8e-12	AS=4.8e-12	PD=2.096e-05	PS=2.096e-05
+ NRD=0.0173	NRS=0.0173
MMM22@6	net4#114	net6#48	VDDA#110	VDDA	pe3	L=1e-05
+ W=1e-05
+ AD=4.8e-12	AS=4.8e-12	PD=2.096e-05	PS=2.096e-05
+ NRD=0.0173	NRS=0.0173
MMM22@1	net4#111	net6#39	VDDA#101	VDDA	pe3	L=1e-05
+ W=1e-05
+ AD=4.8e-12	AS=4.8e-12	PD=2.096e-05	PS=2.096e-05
+ NRD=0.0173	NRS=0.0173
MMM23@6	net6#140	net6#33	VDDA#95	VDDA	pe3	L=1e-05
+ W=1e-05
+ AD=4.8e-12	AS=4.8e-12	PD=2.096e-05	PS=2.096e-05
+ NRD=0.0173	NRS=0.0173
MMM23@7	net6#151	net6#42	VDDA#104	VDDA	pe3	L=1e-05
+ W=1e-05
+ AD=4.8e-12	AS=4.8e-12	PD=2.096e-05	PS=2.096e-05
+ NRD=0.0173	NRS=0.0173
MMM22@4	net4#108	net6#36	VDDA#98	VDDA	pe3	L=1e-05
+ W=1e-05
+ AD=4.8e-12	AS=4.8e-12	PD=2.096e-05	PS=2.096e-05
+ NRD=0.0173	NRS=0.0173
MMM22@3	net4#105	net6#27	VDDA#64	VDDA	pe3	L=1e-05
+ W=1e-05
+ AD=4.8e-12	AS=4.8e-12	PD=2.096e-05	PS=2.096e-05
+ NRD=0.0173	NRS=0.0173
MMM23	net6#118	net6#21	VDDA#58	VDDA	pe3	L=1e-05
+ W=1e-05
+ AD=4.8e-12	AS=4.8e-12	PD=2.096e-05	PS=2.096e-05
+ NRD=0.0173	NRS=0.0173
MMM23@2	net6#129	net6#30	VDDA#67	VDDA	pe3	L=1e-05
+ W=1e-05
+ AD=4.8e-12	AS=4.8e-12	PD=2.096e-05	PS=2.096e-05
+ NRD=0.0173	NRS=0.0173
MMM22@7	net4#102	net6#24	VDDA#61	VDDA	pe3	L=1e-05
+ W=1e-05
+ AD=4.8e-12	AS=4.8e-12	PD=2.096e-05	PS=2.096e-05
+ NRD=0.0173	NRS=0.0173
MMM22	net4#93	net6#15	VDDA#52	VDDA	pe3	L=1e-05
+ W=1e-05
+ AD=4.8e-12	AS=4.8e-12	PD=2.096e-05	PS=2.096e-05
+ NRD=0.0173	NRS=0.0173
MMM23@3	net6#84	net6#9	VDDA#46	VDDA	pe3	L=1e-05
+ W=1e-05
+ AD=4.8e-12	AS=4.8e-12	PD=2.096e-05	PS=2.096e-05
+ NRD=0.0173	NRS=0.0173
MMM23@1	net6#101	net6#18	VDDA#55	VDDA	pe3	L=1e-05
+ W=1e-05
+ AD=4.8e-12	AS=4.8e-12	PD=2.096e-05	PS=2.096e-05
+ NRD=0.0173	NRS=0.0173
MMM22@2	net4#84	net6#12	VDDA#49	VDDA	pe3	L=1e-05
+ W=1e-05
+ AD=4.8e-12	AS=4.8e-12	PD=2.096e-05	PS=2.096e-05
+ NRD=0.0173	NRS=0.0173
MMM22@5	net4#75	net6#3	VDDA#40	VDDA	pe3	L=1e-05
+ W=1e-05
+ AD=4.8e-12	AS=4.8e-12	PD=2.096e-05	PS=2.096e-05
+ NRD=0.0173	NRS=0.0173
MMM5@1	VDDA#37	VDDA#3	VDDA#30	VDDA	pe3	L=1e-05
+ W=1e-05
+ AD=4.8e-12	AS=4.8e-12	PD=2.096e-05	PS=2.096e-05
+ NRD=0.0173	NRS=0.0173
MMM23@5	net6#67	net6#6	VDDA#43	VDDA	pe3	L=1e-05
+ W=1e-05
+ AD=4.8e-12	AS=4.8e-12	PD=2.096e-05	PS=2.096e-05
+ NRD=0.0173	NRS=0.0173
MMM5@2	VDDA#34	VDDA#6	VDDA#21	VDDA	pe3	L=1e-05
+ W=1e-05
+ AD=4.8e-12	AS=4.8e-12	PD=2.096e-05	PS=2.096e-05
+ NRD=0.0173	NRS=0.0173
MMM6@3	VDDA#306	VDDA#18	VDDA#304	VDDA	pe3	L=2e-06
+ W=1e-05
+ AD=4.8e-12	AS=4.8e-12	PD=2.096e-05	PS=2.096e-05
+ NRD=0.0173	NRS=0.0173
MMM4@5	net1#37	net4#62	VDDA#290	VDDA	pe3	L=2e-06
+ W=1e-05
+ AD=4.8e-12	AS=4.8e-12	PD=2.096e-05	PS=2.096e-05
+ NRD=0.0173	NRS=0.0173
MMM6@1	VDDA#309	VDDA#20	VDDA#296	VDDA	pe3	L=2e-06
+ W=1e-05
+ AD=4.8e-12	AS=4.8e-12	PD=2.096e-05	PS=2.096e-05
+ NRD=0.0173	NRS=0.0173
MMM2@7	net2#46	net4#64	VDDA#293	VDDA	pe3	L=2e-06
+ W=1e-05
+ AD=4.8e-12	AS=4.8e-12	PD=2.096e-05	PS=2.096e-05
+ NRD=0.0173	NRS=0.0173
MMM0@1	net7#78	net7#2	net102#20	VDDA	pe3	L=2e-06
+ W=1e-05
+ AD=2.7e-12	AS=4.8e-12	PD=1.054e-05	PS=2.096e-05
+ NRD=0.0173	NRS=0.0173
MMM0	net7#78	net7#4	net102#23	VDDA	pe3	L=2e-06
+ W=1e-05
+ AD=2.7e-12	AS=4.8e-12	PD=1.054e-05	PS=2.096e-05
+ NRD=0.0173	NRS=0.0173
MMM28@1	net102#11	net102#2	VDDA#173	VDDA	pe3	L=2e-06
+ W=1e-05
+ AD=2.7e-12	AS=4.8e-12	PD=1.054e-05	PS=2.096e-05
+ NRD=0.0173	NRS=0.0173
MMM28	net102#11	net102#4	VDDA#176	VDDA	pe3	L=2e-06
+ W=1e-05
+ AD=2.7e-12	AS=4.8e-12	PD=1.054e-05	PS=2.096e-05
+ NRD=0.0173	NRS=0.0173
MMM21@7	RES_BIAS#61	net7#6	net8	VDDA	pe3	L=1e-06	W=1e-05
+ AD=2.7e-12	AS=4.8e-12	PD=1.054e-05	PS=2.096e-05
+ NRD=0.0173	NRS=0.0173
MMM21	RES_BIAS#61	net7#8	net8#4	VDDA	pe3	L=1e-06	W=1e-05
+ AD=2.7e-12	AS=2.7e-12	PD=1.054e-05	PS=1.054e-05
+ NRD=0.0173	NRS=0.0173
MMM21@5	RES_BIAS#64	net7#10	net8#4	VDDA	pe3	L=1e-06
+ W=1e-05
+ AD=2.7e-12	AS=2.7e-12	PD=1.054e-05	PS=1.054e-05
+ NRD=0.0173	NRS=0.0173
MMM21@4	RES_BIAS#64	net7#12	net8#7	VDDA	pe3	L=1e-06
+ W=1e-05
+ AD=2.7e-12	AS=2.7e-12	PD=1.054e-05	PS=1.054e-05
+ NRD=0.0173	NRS=0.0173
MMM21@10	RES_BIAS#67	net7#14	net8#7	VDDA	pe3	L=1e-06
+ W=1e-05
+ AD=2.7e-12	AS=2.7e-12	PD=1.054e-05	PS=1.054e-05
+ NRD=0.0173	NRS=0.0173
MMM21@6	RES_BIAS#67	net7#16	net8#10	VDDA	pe3	L=1e-06
+ W=1e-05
+ AD=2.7e-12	AS=2.7e-12	PD=1.054e-05	PS=1.054e-05
+ NRD=0.0173	NRS=0.0173
MMM21@9	RES_BIAS#70	net7#18	net8#10	VDDA	pe3	L=1e-06
+ W=1e-05
+ AD=2.7e-12	AS=2.7e-12	PD=1.054e-05	PS=1.054e-05
+ NRD=0.0173	NRS=0.0173
MMM21@11	RES_BIAS#70	net7#20	net8#16	VDDA	pe3
+ L=1e-06	W=1e-05
+ AD=2.7e-12	AS=2.7e-12	PD=1.054e-05	PS=1.054e-05
+ NRD=0.0173	NRS=0.0173
MMM21@2	RES_BIAS#73	net7#22	net8#16	VDDA	pe3	L=1e-06
+ W=1e-05
+ AD=2.7e-12	AS=2.7e-12	PD=1.054e-05	PS=1.054e-05
+ NRD=0.0173	NRS=0.0173
MMM21@3	RES_BIAS#73	net7#24	net8#22	VDDA	pe3	L=1e-06
+ W=1e-05
+ AD=2.7e-12	AS=2.7e-12	PD=1.054e-05	PS=1.054e-05
+ NRD=0.0173	NRS=0.0173
MMM21@1	RES_BIAS#76	net7#26	net8#22	VDDA	pe3	L=1e-06
+ W=1e-05
+ AD=2.7e-12	AS=2.7e-12	PD=1.054e-05	PS=1.054e-05
+ NRD=0.0173	NRS=0.0173
MMM21@8	RES_BIAS#76	net7#28	net8#25	VDDA	pe3	L=1e-06
+ W=1e-05
+ AD=2.7e-12	AS=4.8e-12	PD=1.054e-05	PS=2.096e-05
+ NRD=0.0173	NRS=0.0173
MMM3@5	OUT2#34	net7#50	net1#25	VDDA	pe3	L=1e-06
+ W=1e-05
+ AD=2.7e-12	AS=4.8e-12	PD=1.054e-05	PS=2.096e-05
+ NRD=0.0173	NRS=0.0173
MMM3@7	OUT2#34	net7#52	net1#31	VDDA	pe3	L=1e-06
+ W=1e-05
+ AD=2.7e-12	AS=2.7e-12	PD=1.054e-05	PS=1.054e-05
+ NRD=0.0173	NRS=0.0173
MMM3@1	OUT2#37	net7#54	net1#31	VDDA	pe3	L=1e-06
+ W=1e-05
+ AD=2.7e-12	AS=2.7e-12	PD=1.054e-05	PS=1.054e-05
+ NRD=0.0173	NRS=0.0173
MMM3@4	OUT2#37	net7#56	net1#34	VDDA	pe3	L=1e-06
+ W=1e-05
+ AD=2.7e-12	AS=2.7e-12	PD=1.054e-05	PS=1.054e-05
+ NRD=0.0173	NRS=0.0173
MMM3@2	OUT2#40	net7#58	net1#34	VDDA	pe3	L=1e-06
+ W=1e-05
+ AD=2.7e-12	AS=2.7e-12	PD=1.054e-05	PS=1.054e-05
+ NRD=0.0173	NRS=0.0173
MMM3@8	OUT2#40	net7#60	net1#40	VDDA	pe3	L=1e-06
+ W=1e-05
+ AD=2.7e-12	AS=2.7e-12	PD=1.054e-05	PS=1.054e-05
+ NRD=0.0173	NRS=0.0173
MMM3@3	OUT2#43	net7#62	net1#40	VDDA	pe3	L=1e-06
+ W=1e-05
+ AD=2.7e-12	AS=2.7e-12	PD=1.054e-05	PS=1.054e-05
+ NRD=0.0173	NRS=0.0173
MMM3	OUT2#43	net7#64	net1#43	VDDA	pe3	L=1e-06
+ W=1e-05
+ AD=2.7e-12	AS=2.7e-12	PD=1.054e-05	PS=1.054e-05
+ NRD=0.0173	NRS=0.0173
MMM3@9	OUT2#46	net7#66	net1#43	VDDA	pe3	L=1e-06
+ W=1e-05
+ AD=2.7e-12	AS=2.7e-12	PD=1.054e-05	PS=1.054e-05
+ NRD=0.0173	NRS=0.0173
MMM3@6	OUT2#46	net7#68	net1#46	VDDA	pe3	L=1e-06
+ W=1e-05
+ AD=2.7e-12	AS=4.8e-12	PD=1.054e-05	PS=2.096e-05
+ NRD=0.0173	NRS=0.0173
MMM1@9	OUT1#34	net7#30	net2#10	VDDA	pe3	L=1e-06
+ W=1e-05
+ AD=2.7e-12	AS=4.8e-12	PD=1.054e-05	PS=2.096e-05
+ NRD=0.0173	NRS=0.0173
MMM1@2	OUT1#34	net7#32	net2#16	VDDA	pe3	L=1e-06
+ W=1e-05
+ AD=2.7e-12	AS=2.7e-12	PD=1.054e-05	PS=1.054e-05
+ NRD=0.0173	NRS=0.0173
MMM1@7	OUT1#37	net7#34	net2#16	VDDA	pe3	L=1e-06
+ W=1e-05
+ AD=2.7e-12	AS=2.7e-12	PD=1.054e-05	PS=1.054e-05
+ NRD=0.0173	NRS=0.0173
MMM1@4	OUT1#37	net7#36	net2#22	VDDA	pe3	L=1e-06
+ W=1e-05
+ AD=2.7e-12	AS=2.7e-12	PD=1.054e-05	PS=1.054e-05
+ NRD=0.0173	NRS=0.0173
MMM1@6	OUT1#40	net7#38	net2#22	VDDA	pe3	L=1e-06
+ W=1e-05
+ AD=2.7e-12	AS=2.7e-12	PD=1.054e-05	PS=1.054e-05
+ NRD=0.0173	NRS=0.0173
MMM1	OUT1#40	net7#40	net2#25	VDDA	pe3	L=1e-06
+ W=1e-05
+ AD=2.7e-12	AS=2.7e-12	PD=1.054e-05	PS=1.054e-05
+ NRD=0.0173	NRS=0.0173
MMM1@8	OUT1#43	net7#42	net2#25	VDDA	pe3	L=1e-06
+ W=1e-05
+ AD=2.7e-12	AS=2.7e-12	PD=1.054e-05	PS=1.054e-05
+ NRD=0.0173	NRS=0.0173
MMM1@5	OUT1#43	net7#44	net2#28	VDDA	pe3	L=1e-06
+ W=1e-05
+ AD=2.7e-12	AS=2.7e-12	PD=1.054e-05	PS=1.054e-05
+ NRD=0.0173	NRS=0.0173
MMM1@1	OUT1#46	net7#46	net2#28	VDDA	pe3	L=1e-06
+ W=1e-05
+ AD=2.7e-12	AS=2.7e-12	PD=1.054e-05	PS=1.054e-05
+ NRD=0.0173	NRS=0.0173
MMM1@3	OUT1#46	net7#48	net2#34	VDDA	pe3	L=1e-06
+ W=1e-05
+ AD=2.7e-12	AS=4.8e-12	PD=1.054e-05	PS=2.096e-05
+ NRD=0.0173	NRS=0.0173
*
*
*       CANONICAL RESISTOR AND CAP/DIODE CARDS
*
RRR0	net3	RES_BIAS#29	rpp1k1_3 	L=0.0005141	W=4e-06
+ $SUB=GNDA 
*
*       PARASITIC RESISTOR AND CAP/DIODE CARDS
*
Rb2	net4#349	net4#350	1.106581	$METTP	$W=8.8e-07
+ $X=227.895 $Y=38.945
Rb3	net4#350	net4#351	1.106581	$METTP	$W=8.8e-07
+ $X=227.895 $Y=70.545
Rb4	net4#351	net4#352	1.106581	$METTP	$W=8.8e-07
+ $X=227.895 $Y=102.145
Rb5	net4#352	net4#353	1.722836	$METTP	$W=8.8e-07
+ $X=227.895 $Y=126.085
Rb6	net4#353	net4#347	3.869055	$METTP	$W=8.8e-07
+ $X=174.7425 $Y=134.225
Rb7	net4#349	net4#356	0.031239	$METTP	$W=8.8e-07
+ $X=227.005 $Y=23.145
Rb20	net4#356	net4#369	0.002509	$METTP	$W=2.988e-05
+ $X=211.615 $Y=21.829
Rb33	net4#369	net4#382	0.002511	$METTP	$W=2.988e-05
+ $X=211.615 $Y=19.5155
Rb46	net4#382	net4#395	0.002511	$METTP	$W=2.988e-05
+ $X=226.135 $Y=18.305
Rb59	net4#395	net4#408	0.002511	$METTP	$W=2.988e-05
+ $X=211.615 $Y=14.6755
Rb72	net4#408	net4#421	0.002511	$METTP	$W=2.988e-05
+ $X=226.135 $Y=13.465
Rb85	net4#421	net4#434	0.002511	$METTP	$W=2.988e-05
+ $X=211.615 $Y=9.8355
Rb97	net4#434	net4#355	2.000000	$METTP	$W=2.988e-05
+ $X=198.305 $Y=8.625
Rb98	net4#350	net4#447	0.031239	$METTP	$W=8.8e-07
+ $X=227.005 $Y=54.745
Rb111	net4#447	net4#460	0.002509	$METTP	$W=2.988e-05
+ $X=211.615 $Y=53.429
Rb124	net4#460	net4#473	0.002511	$METTP	$W=2.988e-05
+ $X=211.615 $Y=51.1155
Rb137	net4#473	net4#486	0.002511	$METTP	$W=2.988e-05
+ $X=226.135 $Y=49.905
Rb150	net4#486	net4#499	0.002511	$METTP	$W=2.988e-05
+ $X=211.615 $Y=46.2755
Rb163	net4#499	net4#512	0.002511	$METTP	$W=2.988e-05
+ $X=226.135 $Y=45.065
Rb176	net4#512	net4#525	0.002511	$METTP	$W=2.988e-05
+ $X=211.615 $Y=41.4355
Rb188	net4#525	net4#446	2.000000	$METTP	$W=2.988e-05
+ $X=198.305 $Y=40.225
Rb189	net4#351	net4#538	0.031239	$METTP	$W=8.8e-07
+ $X=227.005 $Y=86.345
Rb202	net4#538	net4#551	0.002509	$METTP	$W=2.988e-05
+ $X=211.615 $Y=85.029
Rb215	net4#551	net4#564	0.002511	$METTP	$W=2.988e-05
+ $X=211.615 $Y=82.7155
Rb228	net4#564	net4#577	0.002511	$METTP	$W=2.988e-05
+ $X=226.135 $Y=81.505
Rb241	net4#577	net4#590	0.002511	$METTP	$W=2.988e-05
+ $X=211.615 $Y=77.8755
Rb254	net4#590	net4#603	0.002511	$METTP	$W=2.988e-05
+ $X=226.135 $Y=76.665
Rb267	net4#603	net4#616	0.002511	$METTP	$W=2.988e-05
+ $X=211.615 $Y=73.0355
Rb279	net4#616	net4#537	2.000000	$METTP	$W=2.988e-05
+ $X=198.305 $Y=71.825
Rb280	net4#352	net4#629	0.031239	$METTP	$W=8.8e-07
+ $X=227.005 $Y=117.945
Rb293	net4#629	net4#642	0.002509	$METTP	$W=2.988e-05
+ $X=211.615 $Y=116.629
Rb306	net4#642	net4#655	0.002511	$METTP	$W=2.988e-05
+ $X=211.615 $Y=114.3155
Rb319	net4#655	net4#668	0.002511	$METTP	$W=2.988e-05
+ $X=226.135 $Y=113.105
Rb332	net4#668	net4#681	0.002511	$METTP	$W=2.988e-05
+ $X=211.615 $Y=109.4755
Rb345	net4#681	net4#694	0.002511	$METTP	$W=2.988e-05
+ $X=226.135 $Y=108.265
Rb358	net4#694	net4#707	0.002511	$METTP	$W=2.988e-05
+ $X=211.615 $Y=104.6355
Rb370	net4#707	net4#628	2.000000	$METTP	$W=2.988e-05
+ $X=198.305 $Y=103.425
Rb371	net4#353	net4#719	0.559504	$METTP	$W=8.8e-07
+ $X=194.865 $Y=126.085
Rb372	net4#719	net4#720	1.106581	$METTP	$W=8.8e-07
+ $X=194.865 $Y=102.145
Rb373	net4#720	net4#721	1.106581	$METTP	$W=8.8e-07
+ $X=194.865 $Y=70.545
Rb374	net4#721	net4#722	1.106581	$METTP	$W=8.8e-07
+ $X=194.865 $Y=38.945
Rb376	net4#356	net4#724	0.002509	$METTP	$W=2.988e-05
+ $X=211.615 $Y=24.461
Rb389	net4#724	net4#737	0.002511	$METTP	$W=2.988e-05
+ $X=226.135 $Y=25.565
Rb402	net4#737	net4#750	0.002511	$METTP	$W=2.988e-05
+ $X=211.615 $Y=29.1945
Rb415	net4#750	net4#763	0.002511	$METTP	$W=2.988e-05
+ $X=226.135 $Y=30.405
Rb428	net4#763	net4#776	0.002511	$METTP	$W=2.988e-05
+ $X=211.615 $Y=34.0345
Rb441	net4#776	net4#789	0.002511	$METTP	$W=2.988e-05
+ $X=226.135 $Y=35.245
Rb453	net4#789	net4#355	2.000000	$METTP	$W=2.988e-05
+ $X=198.305 $Y=37.665
Rb454	net4#447	net4#801	0.002509	$METTP	$W=2.988e-05
+ $X=211.615 $Y=56.061
Rb467	net4#801	net4#814	0.002511	$METTP	$W=2.988e-05
+ $X=226.135 $Y=57.165
Rb480	net4#814	net4#827	0.002511	$METTP	$W=2.988e-05
+ $X=211.615 $Y=60.7945
Rb493	net4#827	net4#840	0.002511	$METTP	$W=2.988e-05
+ $X=226.135 $Y=62.005
Rb506	net4#840	net4#853	0.002511	$METTP	$W=2.988e-05
+ $X=211.615 $Y=65.6345
Rb519	net4#853	net4#866	0.002511	$METTP	$W=2.988e-05
+ $X=226.135 $Y=66.845
Rb531	net4#866	net4#446	2.000000	$METTP	$W=2.988e-05
+ $X=198.305 $Y=69.265
Rb532	net4#538	net4#878	0.002509	$METTP	$W=2.988e-05
+ $X=211.615 $Y=87.661
Rb545	net4#878	net4#891	0.002511	$METTP	$W=2.988e-05
+ $X=226.135 $Y=88.765
Rb558	net4#891	net4#904	0.002511	$METTP	$W=2.988e-05
+ $X=211.615 $Y=92.3945
Rb571	net4#904	net4#917	0.002511	$METTP	$W=2.988e-05
+ $X=226.135 $Y=93.605
Rb584	net4#917	net4#930	0.002511	$METTP	$W=2.988e-05
+ $X=211.615 $Y=97.2345
Rb597	net4#930	net4#943	0.002511	$METTP	$W=2.988e-05
+ $X=226.135 $Y=98.445
Rb609	net4#943	net4#537	2.000000	$METTP	$W=2.988e-05
+ $X=198.305 $Y=100.865
Rb610	net4#629	net4#955	0.002509	$METTP	$W=2.988e-05
+ $X=211.615 $Y=119.261
Rb623	net4#955	net4#968	0.002511	$METTP	$W=2.988e-05
+ $X=226.135 $Y=120.365
Rb636	net4#968	net4#981	0.002511	$METTP	$W=2.988e-05
+ $X=211.615 $Y=123.9945
Rb649	net4#981	net4#994	0.002511	$METTP	$W=2.988e-05
+ $X=226.135 $Y=125.205
Rb662	net4#994	net4#1007	0.002511	$METTP	$W=2.988e-05
+ $X=211.615 $Y=128.8345
Rb675	net4#1007	net4#1020	0.002511	$METTP	$W=2.988e-05
+ $X=226.135 $Y=130.045
Rb687	net4#1020	net4#628	2.000000	$METTP	$W=2.988e-05
+ $X=198.305 $Y=132.465
Rb688	net4#719	net4#1033	0.100637	$METTP	$W=8.8e-07
+ $X=192.99 $Y=117.945
Rb701	net4#1033	net4#1046	0.002509	$METTP	$W=2.988e-05
+ $X=176.615 $Y=116.629
Rb714	net4#1046	net4#1059	0.002511	$METTP	$W=2.988e-05
+ $X=176.615 $Y=114.3155
Rb727	net4#1059	net4#1072	0.002511	$METTP	$W=2.988e-05
+ $X=191.135 $Y=113.105
Rb740	net4#1072	net4#1085	0.002511	$METTP	$W=2.988e-05
+ $X=176.615 $Y=109.4755
Rb753	net4#1085	net4#1098	0.002511	$METTP	$W=2.988e-05
+ $X=191.135 $Y=108.265
Rb766	net4#1098	net4#1111	0.002511	$METTP	$W=2.988e-05
+ $X=176.615 $Y=104.6355
Rb778	net4#1111	net4#1032	2.000000	$METTP	$W=2.988e-05
+ $X=163.305 $Y=103.425
Rb779	net4#720	net4#1124	0.100637	$METTP	$W=8.8e-07
+ $X=192.99 $Y=86.345
Rb792	net4#1124	net4#1137	0.002509	$METTP	$W=2.988e-05
+ $X=176.615 $Y=85.029
Rb805	net4#1137	net4#1150	0.002511	$METTP	$W=2.988e-05
+ $X=176.615 $Y=82.7155
Rb818	net4#1150	net4#1163	0.002511	$METTP	$W=2.988e-05
+ $X=191.135 $Y=81.505
Rb831	net4#1163	net4#1176	0.002511	$METTP	$W=2.988e-05
+ $X=176.615 $Y=77.8755
Rb844	net4#1176	net4#1189	0.002511	$METTP	$W=2.988e-05
+ $X=191.135 $Y=76.665
Rb857	net4#1189	net4#1202	0.002511	$METTP	$W=2.988e-05
+ $X=176.615 $Y=73.0355
Rb869	net4#1202	net4#1123	2.000000	$METTP	$W=2.988e-05
+ $X=163.305 $Y=71.825
Rb870	net4#721	net4#1215	0.100637	$METTP	$W=8.8e-07
+ $X=192.99 $Y=54.745
Rb883	net4#1215	net4#1228	0.002509	$METTP	$W=2.988e-05
+ $X=176.615 $Y=53.429
Rb896	net4#1228	net4#1241	0.002511	$METTP	$W=2.988e-05
+ $X=176.615 $Y=51.1155
Rb909	net4#1241	net4#1254	0.002511	$METTP	$W=2.988e-05
+ $X=191.135 $Y=49.905
Rb922	net4#1254	net4#1267	0.002511	$METTP	$W=2.988e-05
+ $X=176.615 $Y=46.2755
Rb935	net4#1267	net4#1280	0.002511	$METTP	$W=2.988e-05
+ $X=191.135 $Y=45.065
Rb948	net4#1280	net4#1293	0.002511	$METTP	$W=2.988e-05
+ $X=176.615 $Y=41.4355
Rb960	net4#1293	net4#1214	2.000000	$METTP	$W=2.988e-05
+ $X=163.305 $Y=40.225
Rb961	net4#722	net4#1306	0.100637	$METTP	$W=8.8e-07
+ $X=192.99 $Y=23.145
Rb974	net4#1306	net4#1319	0.002509	$METTP	$W=2.988e-05
+ $X=176.615 $Y=21.829
Rb987	net4#1319	net4#1332	0.002511	$METTP	$W=2.988e-05
+ $X=176.615 $Y=19.5155
Rb1000	net4#1332	net4#1345	0.002511	$METTP	$W=2.988e-05
+ $X=191.135 $Y=18.305
Rb1013	net4#1345	net4#1358	0.002511	$METTP	$W=2.988e-05
+ $X=176.615 $Y=14.6755
Rb1026	net4#1358	net4#1371	0.002511	$METTP	$W=2.988e-05
+ $X=191.135 $Y=13.465
Rb1039	net4#1371	net4#1384	0.002511	$METTP	$W=2.988e-05
+ $X=176.615 $Y=9.8355
Rb1051	net4#1384	net4#1305	2.000000	$METTP	$W=2.988e-05
+ $X=163.305 $Y=8.625
Rb1052	net4#1033	net4#1396	0.002509	$METTP	$W=2.988e-05
+ $X=176.615 $Y=119.261
Rb1065	net4#1396	net4#1409	0.002511	$METTP	$W=2.988e-05
+ $X=191.135 $Y=120.365
Rb1078	net4#1409	net4#1422	0.002511	$METTP	$W=2.988e-05
+ $X=176.615 $Y=123.9945
Rb1091	net4#1422	net4#1435	0.002511	$METTP	$W=2.988e-05
+ $X=191.135 $Y=125.205
Rb1104	net4#1435	net4#1448	0.002511	$METTP	$W=2.988e-05
+ $X=176.615 $Y=128.8345
Rb1117	net4#1448	net4#1461	0.002511	$METTP	$W=2.988e-05
+ $X=191.135 $Y=130.045
Rb1129	net4#1461	net4#1032	2.000000	$METTP	$W=2.988e-05
+ $X=163.305 $Y=132.465
Rb1130	net4#1124	net4#1473	0.002509	$METTP	$W=2.988e-05
+ $X=176.615 $Y=87.661
Rb1143	net4#1473	net4#1486	0.002511	$METTP	$W=2.988e-05
+ $X=191.135 $Y=88.765
Rb1156	net4#1486	net4#1499	0.002511	$METTP	$W=2.988e-05
+ $X=176.615 $Y=92.3945
Rb1169	net4#1499	net4#1512	0.002511	$METTP	$W=2.988e-05
+ $X=191.135 $Y=93.605
Rb1182	net4#1512	net4#1525	0.002511	$METTP	$W=2.988e-05
+ $X=176.615 $Y=97.2345
Rb1195	net4#1525	net4#1538	0.002511	$METTP	$W=2.988e-05
+ $X=191.135 $Y=98.445
Rb1207	net4#1538	net4#1123	2.000000	$METTP	$W=2.988e-05
+ $X=163.305 $Y=100.865
Rb1208	net4#1215	net4#1550	0.002509	$METTP	$W=2.988e-05
+ $X=176.615 $Y=56.061
Rb1221	net4#1550	net4#1563	0.002511	$METTP	$W=2.988e-05
+ $X=191.135 $Y=57.165
Rb1234	net4#1563	net4#1576	0.002511	$METTP	$W=2.988e-05
+ $X=176.615 $Y=60.7945
Rb1247	net4#1576	net4#1589	0.002511	$METTP	$W=2.988e-05
+ $X=191.135 $Y=62.005
Rb1260	net4#1589	net4#1602	0.002511	$METTP	$W=2.988e-05
+ $X=176.615 $Y=65.6345
Rb1273	net4#1602	net4#1615	0.002511	$METTP	$W=2.988e-05
+ $X=191.135 $Y=66.845
Rb1285	net4#1615	net4#1214	2.000000	$METTP	$W=2.988e-05
+ $X=163.305 $Y=69.265
Rb1286	net4#1306	net4#1627	0.002509	$METTP	$W=2.988e-05
+ $X=176.615 $Y=24.461
Rb1299	net4#1627	net4#1640	0.002511	$METTP	$W=2.988e-05
+ $X=191.135 $Y=25.565
Rb1312	net4#1640	net4#1653	0.002511	$METTP	$W=2.988e-05
+ $X=176.615 $Y=29.1945
Rb1325	net4#1653	net4#1666	0.002511	$METTP	$W=2.988e-05
+ $X=191.135 $Y=30.405
Rb1338	net4#1666	net4#1679	0.002511	$METTP	$W=2.988e-05
+ $X=176.615 $Y=34.0345
Rb1351	net4#1679	net4#1692	0.002511	$METTP	$W=2.988e-05
+ $X=191.135 $Y=35.245
Rb1363	net4#1692	net4#1305	2.000000	$METTP	$W=2.988e-05
+ $X=163.305 $Y=37.665
Rb1364	net4#355	net4#356	2.000000	$METTP	$W=8.8e-07
+ $X=226.135 $Y=23.145
Rb1365	net4#355	net4#356	2.000000	$METTP	$W=3.066e-05
+ $X=223.715 $Y=23.145
Rb1366	net4#355	net4#356	2.000000	$METTP	$W=3.066e-05
+ $X=221.295 $Y=23.145
Rb1367	net4#355	net4#356	2.000000	$METTP	$W=3.066e-05
+ $X=218.875 $Y=23.145
Rb1368	net4#355	net4#356	2.000000	$METTP	$W=3.066e-05
+ $X=216.455 $Y=23.145
Rb1369	net4#355	net4#356	2.000000	$METTP	$W=3.066e-05
+ $X=214.035 $Y=23.145
Rb1370	net4#355	net4#356	2.000000	$METTP	$W=3.066e-05
+ $X=211.615 $Y=23.145
Rb1371	net4#355	net4#356	2.000000	$METTP	$W=3.066e-05
+ $X=209.195 $Y=23.145
Rb1372	net4#355	net4#356	2.000000	$METTP	$W=3.066e-05
+ $X=206.775 $Y=23.145
Rb1373	net4#355	net4#356	2.000000	$METTP	$W=3.066e-05
+ $X=204.355 $Y=23.145
Rb1374	net4#355	net4#356	2.000000	$METTP	$W=3.066e-05
+ $X=201.935 $Y=23.145
Rb1375	net4#355	net4#356	2.000000	$METTP	$W=3.066e-05
+ $X=199.515 $Y=23.145
Rb1376	net4#355	net4#356	2.000000	$METTP	$W=3.066e-05
+ $X=197.095 $Y=23.145
Rb1377	net4#355	net4#369	2.000000	$METTP	$W=2.988e-05
+ $X=226.135 $Y=20.725
Rb1378	net4#355	net4#369	2.000000	$METTP	$W=2.988e-05
+ $X=223.715 $Y=20.725
Rb1379	net4#355	net4#369	2.000000	$METTP	$W=2.988e-05
+ $X=221.295 $Y=20.725
Rb1380	net4#355	net4#369	2.000000	$METTP	$W=2.988e-05
+ $X=218.875 $Y=20.725
Rb1381	net4#355	net4#369	2.000000	$METTP	$W=2.988e-05
+ $X=216.455 $Y=20.725
Rb1382	net4#355	net4#369	2.000000	$METTP	$W=2.988e-05
+ $X=214.035 $Y=20.725
Rb1383	net4#355	net4#369	2.000000	$METTP	$W=2.988e-05
+ $X=211.615 $Y=20.725
Rb1384	net4#355	net4#369	2.000000	$METTP	$W=2.988e-05
+ $X=209.195 $Y=20.725
Rb1385	net4#355	net4#369	2.000000	$METTP	$W=2.988e-05
+ $X=206.775 $Y=20.725
Rb1386	net4#355	net4#369	2.000000	$METTP	$W=2.988e-05
+ $X=204.355 $Y=20.725
Rb1387	net4#355	net4#369	2.000000	$METTP	$W=2.988e-05
+ $X=201.935 $Y=20.725
Rb1388	net4#355	net4#369	2.000000	$METTP	$W=2.988e-05
+ $X=199.515 $Y=20.725
Rb1389	net4#355	net4#369	2.000000	$METTP	$W=2.988e-05
+ $X=197.095 $Y=20.725
Rb1390	net4#355	net4#382	2.000000	$METTP	$W=2.988e-05
+ $X=226.135 $Y=18.305
Rb1391	net4#355	net4#382	2.000000	$METTP	$W=2.988e-05
+ $X=223.715 $Y=18.305
Rb1392	net4#355	net4#382	2.000000	$METTP	$W=2.988e-05
+ $X=221.295 $Y=18.305
Rb1393	net4#355	net4#382	2.000000	$METTP	$W=2.988e-05
+ $X=218.875 $Y=18.305
Rb1394	net4#355	net4#382	2.000000	$METTP	$W=2.988e-05
+ $X=216.455 $Y=18.305
Rb1395	net4#355	net4#382	2.000000	$METTP	$W=2.988e-05
+ $X=214.035 $Y=18.305
Rb1396	net4#355	net4#382	2.000000	$METTP	$W=2.988e-05
+ $X=211.615 $Y=18.305
Rb1397	net4#355	net4#382	2.000000	$METTP	$W=2.988e-05
+ $X=209.195 $Y=18.305
Rb1398	net4#355	net4#382	2.000000	$METTP	$W=2.988e-05
+ $X=206.775 $Y=18.305
Rb1399	net4#355	net4#382	2.000000	$METTP	$W=2.988e-05
+ $X=204.355 $Y=18.305
Rb1400	net4#355	net4#382	2.000000	$METTP	$W=2.988e-05
+ $X=201.935 $Y=18.305
Rb1401	net4#355	net4#382	2.000000	$METTP	$W=2.988e-05
+ $X=199.515 $Y=18.305
Rb1402	net4#355	net4#382	2.000000	$METTP	$W=2.988e-05
+ $X=197.095 $Y=18.305
Rb1403	net4#355	net4#395	2.000000	$METTP	$W=2.988e-05
+ $X=226.135 $Y=15.885
Rb1404	net4#355	net4#395	2.000000	$METTP	$W=2.988e-05
+ $X=223.715 $Y=15.885
Rb1405	net4#355	net4#395	2.000000	$METTP	$W=2.988e-05
+ $X=221.295 $Y=15.885
Rb1406	net4#355	net4#395	2.000000	$METTP	$W=2.988e-05
+ $X=218.875 $Y=15.885
Rb1407	net4#355	net4#395	2.000000	$METTP	$W=2.988e-05
+ $X=216.455 $Y=15.885
Rb1408	net4#355	net4#395	2.000000	$METTP	$W=2.988e-05
+ $X=214.035 $Y=15.885
Rb1409	net4#355	net4#395	2.000000	$METTP	$W=2.988e-05
+ $X=211.615 $Y=15.885
Rb1410	net4#355	net4#395	2.000000	$METTP	$W=2.988e-05
+ $X=209.195 $Y=15.885
Rb1411	net4#355	net4#395	2.000000	$METTP	$W=2.988e-05
+ $X=206.775 $Y=15.885
Rb1412	net4#355	net4#395	2.000000	$METTP	$W=2.988e-05
+ $X=204.355 $Y=15.885
Rb1413	net4#355	net4#395	2.000000	$METTP	$W=2.988e-05
+ $X=201.935 $Y=15.885
Rb1414	net4#355	net4#395	2.000000	$METTP	$W=2.988e-05
+ $X=199.515 $Y=15.885
Rb1415	net4#355	net4#395	2.000000	$METTP	$W=2.988e-05
+ $X=197.095 $Y=15.885
Rb1416	net4#355	net4#408	2.000000	$METTP	$W=2.988e-05
+ $X=226.135 $Y=13.465
Rb1417	net4#355	net4#408	2.000000	$METTP	$W=2.988e-05
+ $X=223.715 $Y=13.465
Rb1418	net4#355	net4#408	2.000000	$METTP	$W=2.988e-05
+ $X=221.295 $Y=13.465
Rb1419	net4#355	net4#408	2.000000	$METTP	$W=2.988e-05
+ $X=218.875 $Y=13.465
Rb1420	net4#355	net4#408	2.000000	$METTP	$W=2.988e-05
+ $X=216.455 $Y=13.465
Rb1421	net4#355	net4#408	2.000000	$METTP	$W=2.988e-05
+ $X=214.035 $Y=13.465
Rb1422	net4#355	net4#408	2.000000	$METTP	$W=2.988e-05
+ $X=211.615 $Y=13.465
Rb1423	net4#355	net4#408	2.000000	$METTP	$W=2.988e-05
+ $X=209.195 $Y=13.465
Rb1424	net4#355	net4#408	2.000000	$METTP	$W=2.988e-05
+ $X=206.775 $Y=13.465
Rb1425	net4#355	net4#408	2.000000	$METTP	$W=2.988e-05
+ $X=204.355 $Y=13.465
Rb1426	net4#355	net4#408	2.000000	$METTP	$W=2.988e-05
+ $X=201.935 $Y=13.465
Rb1427	net4#355	net4#408	2.000000	$METTP	$W=2.988e-05
+ $X=199.515 $Y=13.465
Rb1428	net4#355	net4#408	2.000000	$METTP	$W=2.988e-05
+ $X=197.095 $Y=13.465
Rb1429	net4#355	net4#421	2.000000	$METTP	$W=2.988e-05
+ $X=226.135 $Y=11.045
Rb1430	net4#355	net4#421	2.000000	$METTP	$W=2.988e-05
+ $X=223.715 $Y=11.045
Rb1431	net4#355	net4#421	2.000000	$METTP	$W=2.988e-05
+ $X=221.295 $Y=11.045
Rb1432	net4#355	net4#421	2.000000	$METTP	$W=2.988e-05
+ $X=218.875 $Y=11.045
Rb1433	net4#355	net4#421	2.000000	$METTP	$W=2.988e-05
+ $X=216.455 $Y=11.045
Rb1434	net4#355	net4#421	2.000000	$METTP	$W=2.988e-05
+ $X=214.035 $Y=11.045
Rb1435	net4#355	net4#421	2.000000	$METTP	$W=2.988e-05
+ $X=211.615 $Y=11.045
Rb1436	net4#355	net4#421	2.000000	$METTP	$W=2.988e-05
+ $X=209.195 $Y=11.045
Rb1437	net4#355	net4#421	2.000000	$METTP	$W=2.988e-05
+ $X=206.775 $Y=11.045
Rb1438	net4#355	net4#421	2.000000	$METTP	$W=2.988e-05
+ $X=204.355 $Y=11.045
Rb1439	net4#355	net4#421	2.000000	$METTP	$W=2.988e-05
+ $X=201.935 $Y=11.045
Rb1440	net4#355	net4#421	2.000000	$METTP	$W=2.988e-05
+ $X=199.515 $Y=11.045
Rb1441	net4#355	net4#421	2.000000	$METTP	$W=2.988e-05
+ $X=197.095 $Y=11.045
Rb1442	net4#355	net4#434	2.000000	$METTP	$W=2.988e-05
+ $X=226.135 $Y=8.625
Rb1443	net4#355	net4#434	2.000000	$METTP	$W=2.988e-05
+ $X=223.715 $Y=8.625
Rb1444	net4#355	net4#434	2.000000	$METTP	$W=2.988e-05
+ $X=221.295 $Y=8.625
Rb1445	net4#355	net4#434	2.000000	$METTP	$W=2.988e-05
+ $X=218.875 $Y=8.625
Rb1446	net4#355	net4#434	2.000000	$METTP	$W=2.988e-05
+ $X=216.455 $Y=8.625
Rb1447	net4#355	net4#434	2.000000	$METTP	$W=2.988e-05
+ $X=214.035 $Y=8.625
Rb1448	net4#355	net4#434	2.000000	$METTP	$W=2.988e-05
+ $X=211.615 $Y=8.625
Rb1449	net4#355	net4#434	2.000000	$METTP	$W=2.988e-05
+ $X=209.195 $Y=8.625
Rb1450	net4#355	net4#434	2.000000	$METTP	$W=2.988e-05
+ $X=206.775 $Y=8.625
Rb1451	net4#355	net4#434	2.000000	$METTP	$W=2.988e-05
+ $X=204.355 $Y=8.625
Rb1452	net4#355	net4#434	2.000000	$METTP	$W=2.988e-05
+ $X=201.935 $Y=8.625
Rb1453	net4#355	net4#434	2.000000	$METTP	$W=2.988e-05
+ $X=199.515 $Y=8.625
Rb1454	net4#446	net4#447	2.000000	$METTP	$W=8.8e-07
+ $X=226.135 $Y=54.745
Rb1455	net4#446	net4#447	2.000000	$METTP	$W=3.066e-05
+ $X=223.715 $Y=54.745
Rb1456	net4#446	net4#447	2.000000	$METTP	$W=3.066e-05
+ $X=221.295 $Y=54.745
Rb1457	net4#446	net4#447	2.000000	$METTP	$W=3.066e-05
+ $X=218.875 $Y=54.745
Rb1458	net4#446	net4#447	2.000000	$METTP	$W=3.066e-05
+ $X=216.455 $Y=54.745
Rb1459	net4#446	net4#447	2.000000	$METTP	$W=3.066e-05
+ $X=214.035 $Y=54.745
Rb1460	net4#446	net4#447	2.000000	$METTP	$W=3.066e-05
+ $X=211.615 $Y=54.745
Rb1461	net4#446	net4#447	2.000000	$METTP	$W=3.066e-05
+ $X=209.195 $Y=54.745
Rb1462	net4#446	net4#447	2.000000	$METTP	$W=3.066e-05
+ $X=206.775 $Y=54.745
Rb1463	net4#446	net4#447	2.000000	$METTP	$W=3.066e-05
+ $X=204.355 $Y=54.745
Rb1464	net4#446	net4#447	2.000000	$METTP	$W=3.066e-05
+ $X=201.935 $Y=54.745
Rb1465	net4#446	net4#447	2.000000	$METTP	$W=3.066e-05
+ $X=199.515 $Y=54.745
Rb1466	net4#446	net4#447	2.000000	$METTP	$W=3.066e-05
+ $X=197.095 $Y=54.745
Rb1467	net4#446	net4#460	2.000000	$METTP	$W=2.988e-05
+ $X=226.135 $Y=52.325
Rb1468	net4#446	net4#460	2.000000	$METTP	$W=2.988e-05
+ $X=223.715 $Y=52.325
Rb1469	net4#446	net4#460	2.000000	$METTP	$W=2.988e-05
+ $X=221.295 $Y=52.325
Rb1470	net4#446	net4#460	2.000000	$METTP	$W=2.988e-05
+ $X=218.875 $Y=52.325
Rb1471	net4#446	net4#460	2.000000	$METTP	$W=2.988e-05
+ $X=216.455 $Y=52.325
Rb1472	net4#446	net4#460	2.000000	$METTP	$W=2.988e-05
+ $X=214.035 $Y=52.325
Rb1473	net4#446	net4#460	2.000000	$METTP	$W=2.988e-05
+ $X=211.615 $Y=52.325
Rb1474	net4#446	net4#460	2.000000	$METTP	$W=2.988e-05
+ $X=209.195 $Y=52.325
Rb1475	net4#446	net4#460	2.000000	$METTP	$W=2.988e-05
+ $X=206.775 $Y=52.325
Rb1476	net4#446	net4#460	2.000000	$METTP	$W=2.988e-05
+ $X=204.355 $Y=52.325
Rb1477	net4#446	net4#460	2.000000	$METTP	$W=2.988e-05
+ $X=201.935 $Y=52.325
Rb1478	net4#446	net4#460	2.000000	$METTP	$W=2.988e-05
+ $X=199.515 $Y=52.325
Rb1479	net4#446	net4#460	2.000000	$METTP	$W=2.988e-05
+ $X=197.095 $Y=52.325
Rb1480	net4#446	net4#473	2.000000	$METTP	$W=2.988e-05
+ $X=226.135 $Y=49.905
Rb1481	net4#446	net4#473	2.000000	$METTP	$W=2.988e-05
+ $X=223.715 $Y=49.905
Rb1482	net4#446	net4#473	2.000000	$METTP	$W=2.988e-05
+ $X=221.295 $Y=49.905
Rb1483	net4#446	net4#473	2.000000	$METTP	$W=2.988e-05
+ $X=218.875 $Y=49.905
Rb1484	net4#446	net4#473	2.000000	$METTP	$W=2.988e-05
+ $X=216.455 $Y=49.905
Rb1485	net4#446	net4#473	2.000000	$METTP	$W=2.988e-05
+ $X=214.035 $Y=49.905
Rb1486	net4#446	net4#473	2.000000	$METTP	$W=2.988e-05
+ $X=211.615 $Y=49.905
Rb1487	net4#446	net4#473	2.000000	$METTP	$W=2.988e-05
+ $X=209.195 $Y=49.905
Rb1488	net4#446	net4#473	2.000000	$METTP	$W=2.988e-05
+ $X=206.775 $Y=49.905
Rb1489	net4#446	net4#473	2.000000	$METTP	$W=2.988e-05
+ $X=204.355 $Y=49.905
Rb1490	net4#446	net4#473	2.000000	$METTP	$W=2.988e-05
+ $X=201.935 $Y=49.905
Rb1491	net4#446	net4#473	2.000000	$METTP	$W=2.988e-05
+ $X=199.515 $Y=49.905
Rb1492	net4#446	net4#473	2.000000	$METTP	$W=2.988e-05
+ $X=197.095 $Y=49.905
Rb1493	net4#446	net4#486	2.000000	$METTP	$W=2.988e-05
+ $X=226.135 $Y=47.485
Rb1494	net4#446	net4#486	2.000000	$METTP	$W=2.988e-05
+ $X=223.715 $Y=47.485
Rb1495	net4#446	net4#486	2.000000	$METTP	$W=2.988e-05
+ $X=221.295 $Y=47.485
Rb1496	net4#446	net4#486	2.000000	$METTP	$W=2.988e-05
+ $X=218.875 $Y=47.485
Rb1497	net4#446	net4#486	2.000000	$METTP	$W=2.988e-05
+ $X=216.455 $Y=47.485
Rb1498	net4#446	net4#486	2.000000	$METTP	$W=2.988e-05
+ $X=214.035 $Y=47.485
Rb1499	net4#446	net4#486	2.000000	$METTP	$W=2.988e-05
+ $X=211.615 $Y=47.485
Rb1500	net4#446	net4#486	2.000000	$METTP	$W=2.988e-05
+ $X=209.195 $Y=47.485
Rb1501	net4#446	net4#486	2.000000	$METTP	$W=2.988e-05
+ $X=206.775 $Y=47.485
Rb1502	net4#446	net4#486	2.000000	$METTP	$W=2.988e-05
+ $X=204.355 $Y=47.485
Rb1503	net4#446	net4#486	2.000000	$METTP	$W=2.988e-05
+ $X=201.935 $Y=47.485
Rb1504	net4#446	net4#486	2.000000	$METTP	$W=2.988e-05
+ $X=199.515 $Y=47.485
Rb1505	net4#446	net4#486	2.000000	$METTP	$W=2.988e-05
+ $X=197.095 $Y=47.485
Rb1506	net4#446	net4#499	2.000000	$METTP	$W=2.988e-05
+ $X=226.135 $Y=45.065
Rb1507	net4#446	net4#499	2.000000	$METTP	$W=2.988e-05
+ $X=223.715 $Y=45.065
Rb1508	net4#446	net4#499	2.000000	$METTP	$W=2.988e-05
+ $X=221.295 $Y=45.065
Rb1509	net4#446	net4#499	2.000000	$METTP	$W=2.988e-05
+ $X=218.875 $Y=45.065
Rb1510	net4#446	net4#499	2.000000	$METTP	$W=2.988e-05
+ $X=216.455 $Y=45.065
Rb1511	net4#446	net4#499	2.000000	$METTP	$W=2.988e-05
+ $X=214.035 $Y=45.065
Rb1512	net4#446	net4#499	2.000000	$METTP	$W=2.988e-05
+ $X=211.615 $Y=45.065
Rb1513	net4#446	net4#499	2.000000	$METTP	$W=2.988e-05
+ $X=209.195 $Y=45.065
Rb1514	net4#446	net4#499	2.000000	$METTP	$W=2.988e-05
+ $X=206.775 $Y=45.065
Rb1515	net4#446	net4#499	2.000000	$METTP	$W=2.988e-05
+ $X=204.355 $Y=45.065
Rb1516	net4#446	net4#499	2.000000	$METTP	$W=2.988e-05
+ $X=201.935 $Y=45.065
Rb1517	net4#446	net4#499	2.000000	$METTP	$W=2.988e-05
+ $X=199.515 $Y=45.065
Rb1518	net4#446	net4#499	2.000000	$METTP	$W=2.988e-05
+ $X=197.095 $Y=45.065
Rb1519	net4#446	net4#512	2.000000	$METTP	$W=2.988e-05
+ $X=226.135 $Y=42.645
Rb1520	net4#446	net4#512	2.000000	$METTP	$W=2.988e-05
+ $X=223.715 $Y=42.645
Rb1521	net4#446	net4#512	2.000000	$METTP	$W=2.988e-05
+ $X=221.295 $Y=42.645
Rb1522	net4#446	net4#512	2.000000	$METTP	$W=2.988e-05
+ $X=218.875 $Y=42.645
Rb1523	net4#446	net4#512	2.000000	$METTP	$W=2.988e-05
+ $X=216.455 $Y=42.645
Rb1524	net4#446	net4#512	2.000000	$METTP	$W=2.988e-05
+ $X=214.035 $Y=42.645
Rb1525	net4#446	net4#512	2.000000	$METTP	$W=2.988e-05
+ $X=211.615 $Y=42.645
Rb1526	net4#446	net4#512	2.000000	$METTP	$W=2.988e-05
+ $X=209.195 $Y=42.645
Rb1527	net4#446	net4#512	2.000000	$METTP	$W=2.988e-05
+ $X=206.775 $Y=42.645
Rb1528	net4#446	net4#512	2.000000	$METTP	$W=2.988e-05
+ $X=204.355 $Y=42.645
Rb1529	net4#446	net4#512	2.000000	$METTP	$W=2.988e-05
+ $X=201.935 $Y=42.645
Rb1530	net4#446	net4#512	2.000000	$METTP	$W=2.988e-05
+ $X=199.515 $Y=42.645
Rb1531	net4#446	net4#512	2.000000	$METTP	$W=2.988e-05
+ $X=197.095 $Y=42.645
Rb1532	net4#446	net4#525	2.000000	$METTP	$W=2.988e-05
+ $X=226.135 $Y=40.225
Rb1533	net4#446	net4#525	2.000000	$METTP	$W=2.988e-05
+ $X=223.715 $Y=40.225
Rb1534	net4#446	net4#525	2.000000	$METTP	$W=2.988e-05
+ $X=221.295 $Y=40.225
Rb1535	net4#446	net4#525	2.000000	$METTP	$W=2.988e-05
+ $X=218.875 $Y=40.225
Rb1536	net4#446	net4#525	2.000000	$METTP	$W=2.988e-05
+ $X=216.455 $Y=40.225
Rb1537	net4#446	net4#525	2.000000	$METTP	$W=2.988e-05
+ $X=214.035 $Y=40.225
Rb1538	net4#446	net4#525	2.000000	$METTP	$W=2.988e-05
+ $X=211.615 $Y=40.225
Rb1539	net4#446	net4#525	2.000000	$METTP	$W=2.988e-05
+ $X=209.195 $Y=40.225
Rb1540	net4#446	net4#525	2.000000	$METTP	$W=2.988e-05
+ $X=206.775 $Y=40.225
Rb1541	net4#446	net4#525	2.000000	$METTP	$W=2.988e-05
+ $X=204.355 $Y=40.225
Rb1542	net4#446	net4#525	2.000000	$METTP	$W=2.988e-05
+ $X=201.935 $Y=40.225
Rb1543	net4#446	net4#525	2.000000	$METTP	$W=2.988e-05
+ $X=199.515 $Y=40.225
Rb1544	net4#537	net4#538	2.000000	$METTP	$W=8.8e-07
+ $X=226.135 $Y=86.345
Rb1545	net4#537	net4#538	2.000000	$METTP	$W=3.066e-05
+ $X=223.715 $Y=86.345
Rb1546	net4#537	net4#538	2.000000	$METTP	$W=3.066e-05
+ $X=221.295 $Y=86.345
Rb1547	net4#537	net4#538	2.000000	$METTP	$W=3.066e-05
+ $X=218.875 $Y=86.345
Rb1548	net4#537	net4#538	2.000000	$METTP	$W=3.066e-05
+ $X=216.455 $Y=86.345
Rb1549	net4#537	net4#538	2.000000	$METTP	$W=3.066e-05
+ $X=214.035 $Y=86.345
Rb1550	net4#537	net4#538	2.000000	$METTP	$W=3.066e-05
+ $X=211.615 $Y=86.345
Rb1551	net4#537	net4#538	2.000000	$METTP	$W=3.066e-05
+ $X=209.195 $Y=86.345
Rb1552	net4#537	net4#538	2.000000	$METTP	$W=3.066e-05
+ $X=206.775 $Y=86.345
Rb1553	net4#537	net4#538	2.000000	$METTP	$W=3.066e-05
+ $X=204.355 $Y=86.345
Rb1554	net4#537	net4#538	2.000000	$METTP	$W=3.066e-05
+ $X=201.935 $Y=86.345
Rb1555	net4#537	net4#538	2.000000	$METTP	$W=3.066e-05
+ $X=199.515 $Y=86.345
Rb1556	net4#537	net4#538	2.000000	$METTP	$W=3.066e-05
+ $X=197.095 $Y=86.345
Rb1557	net4#537	net4#551	2.000000	$METTP	$W=2.988e-05
+ $X=226.135 $Y=83.925
Rb1558	net4#537	net4#551	2.000000	$METTP	$W=2.988e-05
+ $X=223.715 $Y=83.925
Rb1559	net4#537	net4#551	2.000000	$METTP	$W=2.988e-05
+ $X=221.295 $Y=83.925
Rb1560	net4#537	net4#551	2.000000	$METTP	$W=2.988e-05
+ $X=218.875 $Y=83.925
Rb1561	net4#537	net4#551	2.000000	$METTP	$W=2.988e-05
+ $X=216.455 $Y=83.925
Rb1562	net4#537	net4#551	2.000000	$METTP	$W=2.988e-05
+ $X=214.035 $Y=83.925
Rb1563	net4#537	net4#551	2.000000	$METTP	$W=2.988e-05
+ $X=211.615 $Y=83.925
Rb1564	net4#537	net4#551	2.000000	$METTP	$W=2.988e-05
+ $X=209.195 $Y=83.925
Rb1565	net4#537	net4#551	2.000000	$METTP	$W=2.988e-05
+ $X=206.775 $Y=83.925
Rb1566	net4#537	net4#551	2.000000	$METTP	$W=2.988e-05
+ $X=204.355 $Y=83.925
Rb1567	net4#537	net4#551	2.000000	$METTP	$W=2.988e-05
+ $X=201.935 $Y=83.925
Rb1568	net4#537	net4#551	2.000000	$METTP	$W=2.988e-05
+ $X=199.515 $Y=83.925
Rb1569	net4#537	net4#551	2.000000	$METTP	$W=2.988e-05
+ $X=197.095 $Y=83.925
Rb1570	net4#537	net4#564	2.000000	$METTP	$W=2.988e-05
+ $X=226.135 $Y=81.505
Rb1571	net4#537	net4#564	2.000000	$METTP	$W=2.988e-05
+ $X=223.715 $Y=81.505
Rb1572	net4#537	net4#564	2.000000	$METTP	$W=2.988e-05
+ $X=221.295 $Y=81.505
Rb1573	net4#537	net4#564	2.000000	$METTP	$W=2.988e-05
+ $X=218.875 $Y=81.505
Rb1574	net4#537	net4#564	2.000000	$METTP	$W=2.988e-05
+ $X=216.455 $Y=81.505
Rb1575	net4#537	net4#564	2.000000	$METTP	$W=2.988e-05
+ $X=214.035 $Y=81.505
Rb1576	net4#537	net4#564	2.000000	$METTP	$W=2.988e-05
+ $X=211.615 $Y=81.505
Rb1577	net4#537	net4#564	2.000000	$METTP	$W=2.988e-05
+ $X=209.195 $Y=81.505
Rb1578	net4#537	net4#564	2.000000	$METTP	$W=2.988e-05
+ $X=206.775 $Y=81.505
Rb1579	net4#537	net4#564	2.000000	$METTP	$W=2.988e-05
+ $X=204.355 $Y=81.505
Rb1580	net4#537	net4#564	2.000000	$METTP	$W=2.988e-05
+ $X=201.935 $Y=81.505
Rb1581	net4#537	net4#564	2.000000	$METTP	$W=2.988e-05
+ $X=199.515 $Y=81.505
Rb1582	net4#537	net4#564	2.000000	$METTP	$W=2.988e-05
+ $X=197.095 $Y=81.505
Rb1583	net4#537	net4#577	2.000000	$METTP	$W=2.988e-05
+ $X=226.135 $Y=79.085
Rb1584	net4#537	net4#577	2.000000	$METTP	$W=2.988e-05
+ $X=223.715 $Y=79.085
Rb1585	net4#537	net4#577	2.000000	$METTP	$W=2.988e-05
+ $X=221.295 $Y=79.085
Rb1586	net4#537	net4#577	2.000000	$METTP	$W=2.988e-05
+ $X=218.875 $Y=79.085
Rb1587	net4#537	net4#577	2.000000	$METTP	$W=2.988e-05
+ $X=216.455 $Y=79.085
Rb1588	net4#537	net4#577	2.000000	$METTP	$W=2.988e-05
+ $X=214.035 $Y=79.085
Rb1589	net4#537	net4#577	2.000000	$METTP	$W=2.988e-05
+ $X=211.615 $Y=79.085
Rb1590	net4#537	net4#577	2.000000	$METTP	$W=2.988e-05
+ $X=209.195 $Y=79.085
Rb1591	net4#537	net4#577	2.000000	$METTP	$W=2.988e-05
+ $X=206.775 $Y=79.085
Rb1592	net4#537	net4#577	2.000000	$METTP	$W=2.988e-05
+ $X=204.355 $Y=79.085
Rb1593	net4#537	net4#577	2.000000	$METTP	$W=2.988e-05
+ $X=201.935 $Y=79.085
Rb1594	net4#537	net4#577	2.000000	$METTP	$W=2.988e-05
+ $X=199.515 $Y=79.085
Rb1595	net4#537	net4#577	2.000000	$METTP	$W=2.988e-05
+ $X=197.095 $Y=79.085
Rb1596	net4#537	net4#590	2.000000	$METTP	$W=2.988e-05
+ $X=226.135 $Y=76.665
Rb1597	net4#537	net4#590	2.000000	$METTP	$W=2.988e-05
+ $X=223.715 $Y=76.665
Rb1598	net4#537	net4#590	2.000000	$METTP	$W=2.988e-05
+ $X=221.295 $Y=76.665
Rb1599	net4#537	net4#590	2.000000	$METTP	$W=2.988e-05
+ $X=218.875 $Y=76.665
Rb1600	net4#537	net4#590	2.000000	$METTP	$W=2.988e-05
+ $X=216.455 $Y=76.665
Rb1601	net4#537	net4#590	2.000000	$METTP	$W=2.988e-05
+ $X=214.035 $Y=76.665
Rb1602	net4#537	net4#590	2.000000	$METTP	$W=2.988e-05
+ $X=211.615 $Y=76.665
Rb1603	net4#537	net4#590	2.000000	$METTP	$W=2.988e-05
+ $X=209.195 $Y=76.665
Rb1604	net4#537	net4#590	2.000000	$METTP	$W=2.988e-05
+ $X=206.775 $Y=76.665
Rb1605	net4#537	net4#590	2.000000	$METTP	$W=2.988e-05
+ $X=204.355 $Y=76.665
Rb1606	net4#537	net4#590	2.000000	$METTP	$W=2.988e-05
+ $X=201.935 $Y=76.665
Rb1607	net4#537	net4#590	2.000000	$METTP	$W=2.988e-05
+ $X=199.515 $Y=76.665
Rb1608	net4#537	net4#590	2.000000	$METTP	$W=2.988e-05
+ $X=197.095 $Y=76.665
Rb1609	net4#537	net4#603	2.000000	$METTP	$W=2.988e-05
+ $X=226.135 $Y=74.245
Rb1610	net4#537	net4#603	2.000000	$METTP	$W=2.988e-05
+ $X=223.715 $Y=74.245
Rb1611	net4#537	net4#603	2.000000	$METTP	$W=2.988e-05
+ $X=221.295 $Y=74.245
Rb1612	net4#537	net4#603	2.000000	$METTP	$W=2.988e-05
+ $X=218.875 $Y=74.245
Rb1613	net4#537	net4#603	2.000000	$METTP	$W=2.988e-05
+ $X=216.455 $Y=74.245
Rb1614	net4#537	net4#603	2.000000	$METTP	$W=2.988e-05
+ $X=214.035 $Y=74.245
Rb1615	net4#537	net4#603	2.000000	$METTP	$W=2.988e-05
+ $X=211.615 $Y=74.245
Rb1616	net4#537	net4#603	2.000000	$METTP	$W=2.988e-05
+ $X=209.195 $Y=74.245
Rb1617	net4#537	net4#603	2.000000	$METTP	$W=2.988e-05
+ $X=206.775 $Y=74.245
Rb1618	net4#537	net4#603	2.000000	$METTP	$W=2.988e-05
+ $X=204.355 $Y=74.245
Rb1619	net4#537	net4#603	2.000000	$METTP	$W=2.988e-05
+ $X=201.935 $Y=74.245
Rb1620	net4#537	net4#603	2.000000	$METTP	$W=2.988e-05
+ $X=199.515 $Y=74.245
Rb1621	net4#537	net4#603	2.000000	$METTP	$W=2.988e-05
+ $X=197.095 $Y=74.245
Rb1622	net4#537	net4#616	2.000000	$METTP	$W=2.988e-05
+ $X=226.135 $Y=71.825
Rb1623	net4#537	net4#616	2.000000	$METTP	$W=2.988e-05
+ $X=223.715 $Y=71.825
Rb1624	net4#537	net4#616	2.000000	$METTP	$W=2.988e-05
+ $X=221.295 $Y=71.825
Rb1625	net4#537	net4#616	2.000000	$METTP	$W=2.988e-05
+ $X=218.875 $Y=71.825
Rb1626	net4#537	net4#616	2.000000	$METTP	$W=2.988e-05
+ $X=216.455 $Y=71.825
Rb1627	net4#537	net4#616	2.000000	$METTP	$W=2.988e-05
+ $X=214.035 $Y=71.825
Rb1628	net4#537	net4#616	2.000000	$METTP	$W=2.988e-05
+ $X=211.615 $Y=71.825
Rb1629	net4#537	net4#616	2.000000	$METTP	$W=2.988e-05
+ $X=209.195 $Y=71.825
Rb1630	net4#537	net4#616	2.000000	$METTP	$W=2.988e-05
+ $X=206.775 $Y=71.825
Rb1631	net4#537	net4#616	2.000000	$METTP	$W=2.988e-05
+ $X=204.355 $Y=71.825
Rb1632	net4#537	net4#616	2.000000	$METTP	$W=2.988e-05
+ $X=201.935 $Y=71.825
Rb1633	net4#537	net4#616	2.000000	$METTP	$W=2.988e-05
+ $X=199.515 $Y=71.825
Rb1634	net4#628	net4#629	2.000000	$METTP	$W=8.8e-07
+ $X=226.135 $Y=117.945
Rb1635	net4#628	net4#629	2.000000	$METTP	$W=3.066e-05
+ $X=223.715 $Y=117.945
Rb1636	net4#628	net4#629	2.000000	$METTP	$W=3.066e-05
+ $X=221.295 $Y=117.945
Rb1637	net4#628	net4#629	2.000000	$METTP	$W=3.066e-05
+ $X=218.875 $Y=117.945
Rb1638	net4#628	net4#629	2.000000	$METTP	$W=3.066e-05
+ $X=216.455 $Y=117.945
Rb1639	net4#628	net4#629	2.000000	$METTP	$W=3.066e-05
+ $X=214.035 $Y=117.945
Rb1640	net4#628	net4#629	2.000000	$METTP	$W=3.066e-05
+ $X=211.615 $Y=117.945
Rb1641	net4#628	net4#629	2.000000	$METTP	$W=3.066e-05
+ $X=209.195 $Y=117.945
Rb1642	net4#628	net4#629	2.000000	$METTP	$W=3.066e-05
+ $X=206.775 $Y=117.945
Rb1643	net4#628	net4#629	2.000000	$METTP	$W=3.066e-05
+ $X=204.355 $Y=117.945
Rb1644	net4#628	net4#629	2.000000	$METTP	$W=3.066e-05
+ $X=201.935 $Y=117.945
Rb1645	net4#628	net4#629	2.000000	$METTP	$W=3.066e-05
+ $X=199.515 $Y=117.945
Rb1646	net4#628	net4#629	2.000000	$METTP	$W=3.066e-05
+ $X=197.095 $Y=117.945
Rb1647	net4#628	net4#642	2.000000	$METTP	$W=2.988e-05
+ $X=226.135 $Y=115.525
Rb1648	net4#628	net4#642	2.000000	$METTP	$W=2.988e-05
+ $X=223.715 $Y=115.525
Rb1649	net4#628	net4#642	2.000000	$METTP	$W=2.988e-05
+ $X=221.295 $Y=115.525
Rb1650	net4#628	net4#642	2.000000	$METTP	$W=2.988e-05
+ $X=218.875 $Y=115.525
Rb1651	net4#628	net4#642	2.000000	$METTP	$W=2.988e-05
+ $X=216.455 $Y=115.525
Rb1652	net4#628	net4#642	2.000000	$METTP	$W=2.988e-05
+ $X=214.035 $Y=115.525
Rb1653	net4#628	net4#642	2.000000	$METTP	$W=2.988e-05
+ $X=211.615 $Y=115.525
Rb1654	net4#628	net4#642	2.000000	$METTP	$W=2.988e-05
+ $X=209.195 $Y=115.525
Rb1655	net4#628	net4#642	2.000000	$METTP	$W=2.988e-05
+ $X=206.775 $Y=115.525
Rb1656	net4#628	net4#642	2.000000	$METTP	$W=2.988e-05
+ $X=204.355 $Y=115.525
Rb1657	net4#628	net4#642	2.000000	$METTP	$W=2.988e-05
+ $X=201.935 $Y=115.525
Rb1658	net4#628	net4#642	2.000000	$METTP	$W=2.988e-05
+ $X=199.515 $Y=115.525
Rb1659	net4#628	net4#642	2.000000	$METTP	$W=2.988e-05
+ $X=197.095 $Y=115.525
Rb1660	net4#628	net4#655	2.000000	$METTP	$W=2.988e-05
+ $X=226.135 $Y=113.105
Rb1661	net4#628	net4#655	2.000000	$METTP	$W=2.988e-05
+ $X=223.715 $Y=113.105
Rb1662	net4#628	net4#655	2.000000	$METTP	$W=2.988e-05
+ $X=221.295 $Y=113.105
Rb1663	net4#628	net4#655	2.000000	$METTP	$W=2.988e-05
+ $X=218.875 $Y=113.105
Rb1664	net4#628	net4#655	2.000000	$METTP	$W=2.988e-05
+ $X=216.455 $Y=113.105
Rb1665	net4#628	net4#655	2.000000	$METTP	$W=2.988e-05
+ $X=214.035 $Y=113.105
Rb1666	net4#628	net4#655	2.000000	$METTP	$W=2.988e-05
+ $X=211.615 $Y=113.105
Rb1667	net4#628	net4#655	2.000000	$METTP	$W=2.988e-05
+ $X=209.195 $Y=113.105
Rb1668	net4#628	net4#655	2.000000	$METTP	$W=2.988e-05
+ $X=206.775 $Y=113.105
Rb1669	net4#628	net4#655	2.000000	$METTP	$W=2.988e-05
+ $X=204.355 $Y=113.105
Rb1670	net4#628	net4#655	2.000000	$METTP	$W=2.988e-05
+ $X=201.935 $Y=113.105
Rb1671	net4#628	net4#655	2.000000	$METTP	$W=2.988e-05
+ $X=199.515 $Y=113.105
Rb1672	net4#628	net4#655	2.000000	$METTP	$W=2.988e-05
+ $X=197.095 $Y=113.105
Rb1673	net4#628	net4#668	2.000000	$METTP	$W=2.988e-05
+ $X=226.135 $Y=110.685
Rb1674	net4#628	net4#668	2.000000	$METTP	$W=2.988e-05
+ $X=223.715 $Y=110.685
Rb1675	net4#628	net4#668	2.000000	$METTP	$W=2.988e-05
+ $X=221.295 $Y=110.685
Rb1676	net4#628	net4#668	2.000000	$METTP	$W=2.988e-05
+ $X=218.875 $Y=110.685
Rb1677	net4#628	net4#668	2.000000	$METTP	$W=2.988e-05
+ $X=216.455 $Y=110.685
Rb1678	net4#628	net4#668	2.000000	$METTP	$W=2.988e-05
+ $X=214.035 $Y=110.685
Rb1679	net4#628	net4#668	2.000000	$METTP	$W=2.988e-05
+ $X=211.615 $Y=110.685
Rb1680	net4#628	net4#668	2.000000	$METTP	$W=2.988e-05
+ $X=209.195 $Y=110.685
Rb1681	net4#628	net4#668	2.000000	$METTP	$W=2.988e-05
+ $X=206.775 $Y=110.685
Rb1682	net4#628	net4#668	2.000000	$METTP	$W=2.988e-05
+ $X=204.355 $Y=110.685
Rb1683	net4#628	net4#668	2.000000	$METTP	$W=2.988e-05
+ $X=201.935 $Y=110.685
Rb1684	net4#628	net4#668	2.000000	$METTP	$W=2.988e-05
+ $X=199.515 $Y=110.685
Rb1685	net4#628	net4#668	2.000000	$METTP	$W=2.988e-05
+ $X=197.095 $Y=110.685
Rb1686	net4#628	net4#681	2.000000	$METTP	$W=2.988e-05
+ $X=226.135 $Y=108.265
Rb1687	net4#628	net4#681	2.000000	$METTP	$W=2.988e-05
+ $X=223.715 $Y=108.265
Rb1688	net4#628	net4#681	2.000000	$METTP	$W=2.988e-05
+ $X=221.295 $Y=108.265
Rb1689	net4#628	net4#681	2.000000	$METTP	$W=2.988e-05
+ $X=218.875 $Y=108.265
Rb1690	net4#628	net4#681	2.000000	$METTP	$W=2.988e-05
+ $X=216.455 $Y=108.265
Rb1691	net4#628	net4#681	2.000000	$METTP	$W=2.988e-05
+ $X=214.035 $Y=108.265
Rb1692	net4#628	net4#681	2.000000	$METTP	$W=2.988e-05
+ $X=211.615 $Y=108.265
Rb1693	net4#628	net4#681	2.000000	$METTP	$W=2.988e-05
+ $X=209.195 $Y=108.265
Rb1694	net4#628	net4#681	2.000000	$METTP	$W=2.988e-05
+ $X=206.775 $Y=108.265
Rb1695	net4#628	net4#681	2.000000	$METTP	$W=2.988e-05
+ $X=204.355 $Y=108.265
Rb1696	net4#628	net4#681	2.000000	$METTP	$W=2.988e-05
+ $X=201.935 $Y=108.265
Rb1697	net4#628	net4#681	2.000000	$METTP	$W=2.988e-05
+ $X=199.515 $Y=108.265
Rb1698	net4#628	net4#681	2.000000	$METTP	$W=2.988e-05
+ $X=197.095 $Y=108.265
Rb1699	net4#628	net4#694	2.000000	$METTP	$W=2.988e-05
+ $X=226.135 $Y=105.845
Rb1700	net4#628	net4#694	2.000000	$METTP	$W=2.988e-05
+ $X=223.715 $Y=105.845
Rb1701	net4#628	net4#694	2.000000	$METTP	$W=2.988e-05
+ $X=221.295 $Y=105.845
Rb1702	net4#628	net4#694	2.000000	$METTP	$W=2.988e-05
+ $X=218.875 $Y=105.845
Rb1703	net4#628	net4#694	2.000000	$METTP	$W=2.988e-05
+ $X=216.455 $Y=105.845
Rb1704	net4#628	net4#694	2.000000	$METTP	$W=2.988e-05
+ $X=214.035 $Y=105.845
Rb1705	net4#628	net4#694	2.000000	$METTP	$W=2.988e-05
+ $X=211.615 $Y=105.845
Rb1706	net4#628	net4#694	2.000000	$METTP	$W=2.988e-05
+ $X=209.195 $Y=105.845
Rb1707	net4#628	net4#694	2.000000	$METTP	$W=2.988e-05
+ $X=206.775 $Y=105.845
Rb1708	net4#628	net4#694	2.000000	$METTP	$W=2.988e-05
+ $X=204.355 $Y=105.845
Rb1709	net4#628	net4#694	2.000000	$METTP	$W=2.988e-05
+ $X=201.935 $Y=105.845
Rb1710	net4#628	net4#694	2.000000	$METTP	$W=2.988e-05
+ $X=199.515 $Y=105.845
Rb1711	net4#628	net4#694	2.000000	$METTP	$W=2.988e-05
+ $X=197.095 $Y=105.845
Rb1712	net4#628	net4#707	2.000000	$METTP	$W=2.988e-05
+ $X=226.135 $Y=103.425
Rb1713	net4#628	net4#707	2.000000	$METTP	$W=2.988e-05
+ $X=223.715 $Y=103.425
Rb1714	net4#628	net4#707	2.000000	$METTP	$W=2.988e-05
+ $X=221.295 $Y=103.425
Rb1715	net4#628	net4#707	2.000000	$METTP	$W=2.988e-05
+ $X=218.875 $Y=103.425
Rb1716	net4#628	net4#707	2.000000	$METTP	$W=2.988e-05
+ $X=216.455 $Y=103.425
Rb1717	net4#628	net4#707	2.000000	$METTP	$W=2.988e-05
+ $X=214.035 $Y=103.425
Rb1718	net4#628	net4#707	2.000000	$METTP	$W=2.988e-05
+ $X=211.615 $Y=103.425
Rb1719	net4#628	net4#707	2.000000	$METTP	$W=2.988e-05
+ $X=209.195 $Y=103.425
Rb1720	net4#628	net4#707	2.000000	$METTP	$W=2.988e-05
+ $X=206.775 $Y=103.425
Rb1721	net4#628	net4#707	2.000000	$METTP	$W=2.988e-05
+ $X=204.355 $Y=103.425
Rb1722	net4#628	net4#707	2.000000	$METTP	$W=2.988e-05
+ $X=201.935 $Y=103.425
Rb1723	net4#628	net4#707	2.000000	$METTP	$W=2.988e-05
+ $X=199.515 $Y=103.425
Rb1724	net4#355	net4#724	2.000000	$METTP	$W=2.988e-05
+ $X=226.135 $Y=25.565
Rb1725	net4#355	net4#724	2.000000	$METTP	$W=2.988e-05
+ $X=223.715 $Y=25.565
Rb1726	net4#355	net4#724	2.000000	$METTP	$W=2.988e-05
+ $X=221.295 $Y=25.565
Rb1727	net4#355	net4#724	2.000000	$METTP	$W=2.988e-05
+ $X=218.875 $Y=25.565
Rb1728	net4#355	net4#724	2.000000	$METTP	$W=2.988e-05
+ $X=216.455 $Y=25.565
Rb1729	net4#355	net4#724	2.000000	$METTP	$W=2.988e-05
+ $X=214.035 $Y=25.565
Rb1730	net4#355	net4#724	2.000000	$METTP	$W=2.988e-05
+ $X=211.615 $Y=25.565
Rb1731	net4#355	net4#724	2.000000	$METTP	$W=2.988e-05
+ $X=209.195 $Y=25.565
Rb1732	net4#355	net4#724	2.000000	$METTP	$W=2.988e-05
+ $X=206.775 $Y=25.565
Rb1733	net4#355	net4#724	2.000000	$METTP	$W=2.988e-05
+ $X=204.355 $Y=25.565
Rb1734	net4#355	net4#724	2.000000	$METTP	$W=2.988e-05
+ $X=201.935 $Y=25.565
Rb1735	net4#355	net4#724	2.000000	$METTP	$W=2.988e-05
+ $X=199.515 $Y=25.565
Rb1736	net4#355	net4#724	2.000000	$METTP	$W=2.988e-05
+ $X=197.095 $Y=25.565
Rb1737	net4#355	net4#737	2.000000	$METTP	$W=2.988e-05
+ $X=226.135 $Y=27.985
Rb1738	net4#355	net4#737	2.000000	$METTP	$W=2.988e-05
+ $X=223.715 $Y=27.985
Rb1739	net4#355	net4#737	2.000000	$METTP	$W=2.988e-05
+ $X=221.295 $Y=27.985
Rb1740	net4#355	net4#737	2.000000	$METTP	$W=2.988e-05
+ $X=218.875 $Y=27.985
Rb1741	net4#355	net4#737	2.000000	$METTP	$W=2.988e-05
+ $X=216.455 $Y=27.985
Rb1742	net4#355	net4#737	2.000000	$METTP	$W=2.988e-05
+ $X=214.035 $Y=27.985
Rb1743	net4#355	net4#737	2.000000	$METTP	$W=2.988e-05
+ $X=211.615 $Y=27.985
Rb1744	net4#355	net4#737	2.000000	$METTP	$W=2.988e-05
+ $X=209.195 $Y=27.985
Rb1745	net4#355	net4#737	2.000000	$METTP	$W=2.988e-05
+ $X=206.775 $Y=27.985
Rb1746	net4#355	net4#737	2.000000	$METTP	$W=2.988e-05
+ $X=204.355 $Y=27.985
Rb1747	net4#355	net4#737	2.000000	$METTP	$W=2.988e-05
+ $X=201.935 $Y=27.985
Rb1748	net4#355	net4#737	2.000000	$METTP	$W=2.988e-05
+ $X=199.515 $Y=27.985
Rb1749	net4#355	net4#737	2.000000	$METTP	$W=2.988e-05
+ $X=197.095 $Y=27.985
Rb1750	net4#355	net4#750	2.000000	$METTP	$W=2.988e-05
+ $X=226.135 $Y=30.405
Rb1751	net4#355	net4#750	2.000000	$METTP	$W=2.988e-05
+ $X=223.715 $Y=30.405
Rb1752	net4#355	net4#750	2.000000	$METTP	$W=2.988e-05
+ $X=221.295 $Y=30.405
Rb1753	net4#355	net4#750	2.000000	$METTP	$W=2.988e-05
+ $X=218.875 $Y=30.405
Rb1754	net4#355	net4#750	2.000000	$METTP	$W=2.988e-05
+ $X=216.455 $Y=30.405
Rb1755	net4#355	net4#750	2.000000	$METTP	$W=2.988e-05
+ $X=214.035 $Y=30.405
Rb1756	net4#355	net4#750	2.000000	$METTP	$W=2.988e-05
+ $X=211.615 $Y=30.405
Rb1757	net4#355	net4#750	2.000000	$METTP	$W=2.988e-05
+ $X=209.195 $Y=30.405
Rb1758	net4#355	net4#750	2.000000	$METTP	$W=2.988e-05
+ $X=206.775 $Y=30.405
Rb1759	net4#355	net4#750	2.000000	$METTP	$W=2.988e-05
+ $X=204.355 $Y=30.405
Rb1760	net4#355	net4#750	2.000000	$METTP	$W=2.988e-05
+ $X=201.935 $Y=30.405
Rb1761	net4#355	net4#750	2.000000	$METTP	$W=2.988e-05
+ $X=199.515 $Y=30.405
Rb1762	net4#355	net4#750	2.000000	$METTP	$W=2.988e-05
+ $X=197.095 $Y=30.405
Rb1763	net4#355	net4#763	2.000000	$METTP	$W=2.988e-05
+ $X=226.135 $Y=32.825
Rb1764	net4#355	net4#763	2.000000	$METTP	$W=2.988e-05
+ $X=223.715 $Y=32.825
Rb1765	net4#355	net4#763	2.000000	$METTP	$W=2.988e-05
+ $X=221.295 $Y=32.825
Rb1766	net4#355	net4#763	2.000000	$METTP	$W=2.988e-05
+ $X=218.875 $Y=32.825
Rb1767	net4#355	net4#763	2.000000	$METTP	$W=2.988e-05
+ $X=216.455 $Y=32.825
Rb1768	net4#355	net4#763	2.000000	$METTP	$W=2.988e-05
+ $X=214.035 $Y=32.825
Rb1769	net4#355	net4#763	2.000000	$METTP	$W=2.988e-05
+ $X=211.615 $Y=32.825
Rb1770	net4#355	net4#763	2.000000	$METTP	$W=2.988e-05
+ $X=209.195 $Y=32.825
Rb1771	net4#355	net4#763	2.000000	$METTP	$W=2.988e-05
+ $X=206.775 $Y=32.825
Rb1772	net4#355	net4#763	2.000000	$METTP	$W=2.988e-05
+ $X=204.355 $Y=32.825
Rb1773	net4#355	net4#763	2.000000	$METTP	$W=2.988e-05
+ $X=201.935 $Y=32.825
Rb1774	net4#355	net4#763	2.000000	$METTP	$W=2.988e-05
+ $X=199.515 $Y=32.825
Rb1775	net4#355	net4#763	2.000000	$METTP	$W=2.988e-05
+ $X=197.095 $Y=32.825
Rb1776	net4#355	net4#776	2.000000	$METTP	$W=2.988e-05
+ $X=226.135 $Y=35.245
Rb1777	net4#355	net4#776	2.000000	$METTP	$W=2.988e-05
+ $X=223.715 $Y=35.245
Rb1778	net4#355	net4#776	2.000000	$METTP	$W=2.988e-05
+ $X=221.295 $Y=35.245
Rb1779	net4#355	net4#776	2.000000	$METTP	$W=2.988e-05
+ $X=218.875 $Y=35.245
Rb1780	net4#355	net4#776	2.000000	$METTP	$W=2.988e-05
+ $X=216.455 $Y=35.245
Rb1781	net4#355	net4#776	2.000000	$METTP	$W=2.988e-05
+ $X=214.035 $Y=35.245
Rb1782	net4#355	net4#776	2.000000	$METTP	$W=2.988e-05
+ $X=211.615 $Y=35.245
Rb1783	net4#355	net4#776	2.000000	$METTP	$W=2.988e-05
+ $X=209.195 $Y=35.245
Rb1784	net4#355	net4#776	2.000000	$METTP	$W=2.988e-05
+ $X=206.775 $Y=35.245
Rb1785	net4#355	net4#776	2.000000	$METTP	$W=2.988e-05
+ $X=204.355 $Y=35.245
Rb1786	net4#355	net4#776	2.000000	$METTP	$W=2.988e-05
+ $X=201.935 $Y=35.245
Rb1787	net4#355	net4#776	2.000000	$METTP	$W=2.988e-05
+ $X=199.515 $Y=35.245
Rb1788	net4#355	net4#776	2.000000	$METTP	$W=2.988e-05
+ $X=197.095 $Y=35.245
Rb1789	net4#355	net4#789	2.000000	$METTP	$W=2.988e-05
+ $X=226.135 $Y=37.665
Rb1790	net4#355	net4#789	2.000000	$METTP	$W=2.988e-05
+ $X=223.715 $Y=37.665
Rb1791	net4#355	net4#789	2.000000	$METTP	$W=2.988e-05
+ $X=221.295 $Y=37.665
Rb1792	net4#355	net4#789	2.000000	$METTP	$W=2.988e-05
+ $X=218.875 $Y=37.665
Rb1793	net4#355	net4#789	2.000000	$METTP	$W=2.988e-05
+ $X=216.455 $Y=37.665
Rb1794	net4#355	net4#789	2.000000	$METTP	$W=2.988e-05
+ $X=214.035 $Y=37.665
Rb1795	net4#355	net4#789	2.000000	$METTP	$W=2.988e-05
+ $X=211.615 $Y=37.665
Rb1796	net4#355	net4#789	2.000000	$METTP	$W=2.988e-05
+ $X=209.195 $Y=37.665
Rb1797	net4#355	net4#789	2.000000	$METTP	$W=2.988e-05
+ $X=206.775 $Y=37.665
Rb1798	net4#355	net4#789	2.000000	$METTP	$W=2.988e-05
+ $X=204.355 $Y=37.665
Rb1799	net4#355	net4#789	2.000000	$METTP	$W=2.988e-05
+ $X=201.935 $Y=37.665
Rb1800	net4#355	net4#789	2.000000	$METTP	$W=2.988e-05
+ $X=199.515 $Y=37.665
Rb1801	net4#446	net4#801	2.000000	$METTP	$W=2.988e-05
+ $X=226.135 $Y=57.165
Rb1802	net4#446	net4#801	2.000000	$METTP	$W=2.988e-05
+ $X=223.715 $Y=57.165
Rb1803	net4#446	net4#801	2.000000	$METTP	$W=2.988e-05
+ $X=221.295 $Y=57.165
Rb1804	net4#446	net4#801	2.000000	$METTP	$W=2.988e-05
+ $X=218.875 $Y=57.165
Rb1805	net4#446	net4#801	2.000000	$METTP	$W=2.988e-05
+ $X=216.455 $Y=57.165
Rb1806	net4#446	net4#801	2.000000	$METTP	$W=2.988e-05
+ $X=214.035 $Y=57.165
Rb1807	net4#446	net4#801	2.000000	$METTP	$W=2.988e-05
+ $X=211.615 $Y=57.165
Rb1808	net4#446	net4#801	2.000000	$METTP	$W=2.988e-05
+ $X=209.195 $Y=57.165
Rb1809	net4#446	net4#801	2.000000	$METTP	$W=2.988e-05
+ $X=206.775 $Y=57.165
Rb1810	net4#446	net4#801	2.000000	$METTP	$W=2.988e-05
+ $X=204.355 $Y=57.165
Rb1811	net4#446	net4#801	2.000000	$METTP	$W=2.988e-05
+ $X=201.935 $Y=57.165
Rb1812	net4#446	net4#801	2.000000	$METTP	$W=2.988e-05
+ $X=199.515 $Y=57.165
Rb1813	net4#446	net4#801	2.000000	$METTP	$W=2.988e-05
+ $X=197.095 $Y=57.165
Rb1814	net4#446	net4#814	2.000000	$METTP	$W=2.988e-05
+ $X=226.135 $Y=59.585
Rb1815	net4#446	net4#814	2.000000	$METTP	$W=2.988e-05
+ $X=223.715 $Y=59.585
Rb1816	net4#446	net4#814	2.000000	$METTP	$W=2.988e-05
+ $X=221.295 $Y=59.585
Rb1817	net4#446	net4#814	2.000000	$METTP	$W=2.988e-05
+ $X=218.875 $Y=59.585
Rb1818	net4#446	net4#814	2.000000	$METTP	$W=2.988e-05
+ $X=216.455 $Y=59.585
Rb1819	net4#446	net4#814	2.000000	$METTP	$W=2.988e-05
+ $X=214.035 $Y=59.585
Rb1820	net4#446	net4#814	2.000000	$METTP	$W=2.988e-05
+ $X=211.615 $Y=59.585
Rb1821	net4#446	net4#814	2.000000	$METTP	$W=2.988e-05
+ $X=209.195 $Y=59.585
Rb1822	net4#446	net4#814	2.000000	$METTP	$W=2.988e-05
+ $X=206.775 $Y=59.585
Rb1823	net4#446	net4#814	2.000000	$METTP	$W=2.988e-05
+ $X=204.355 $Y=59.585
Rb1824	net4#446	net4#814	2.000000	$METTP	$W=2.988e-05
+ $X=201.935 $Y=59.585
Rb1825	net4#446	net4#814	2.000000	$METTP	$W=2.988e-05
+ $X=199.515 $Y=59.585
Rb1826	net4#446	net4#814	2.000000	$METTP	$W=2.988e-05
+ $X=197.095 $Y=59.585
Rb1827	net4#446	net4#827	2.000000	$METTP	$W=2.988e-05
+ $X=226.135 $Y=62.005
Rb1828	net4#446	net4#827	2.000000	$METTP	$W=2.988e-05
+ $X=223.715 $Y=62.005
Rb1829	net4#446	net4#827	2.000000	$METTP	$W=2.988e-05
+ $X=221.295 $Y=62.005
Rb1830	net4#446	net4#827	2.000000	$METTP	$W=2.988e-05
+ $X=218.875 $Y=62.005
Rb1831	net4#446	net4#827	2.000000	$METTP	$W=2.988e-05
+ $X=216.455 $Y=62.005
Rb1832	net4#446	net4#827	2.000000	$METTP	$W=2.988e-05
+ $X=214.035 $Y=62.005
Rb1833	net4#446	net4#827	2.000000	$METTP	$W=2.988e-05
+ $X=211.615 $Y=62.005
Rb1834	net4#446	net4#827	2.000000	$METTP	$W=2.988e-05
+ $X=209.195 $Y=62.005
Rb1835	net4#446	net4#827	2.000000	$METTP	$W=2.988e-05
+ $X=206.775 $Y=62.005
Rb1836	net4#446	net4#827	2.000000	$METTP	$W=2.988e-05
+ $X=204.355 $Y=62.005
Rb1837	net4#446	net4#827	2.000000	$METTP	$W=2.988e-05
+ $X=201.935 $Y=62.005
Rb1838	net4#446	net4#827	2.000000	$METTP	$W=2.988e-05
+ $X=199.515 $Y=62.005
Rb1839	net4#446	net4#827	2.000000	$METTP	$W=2.988e-05
+ $X=197.095 $Y=62.005
Rb1840	net4#446	net4#840	2.000000	$METTP	$W=2.988e-05
+ $X=226.135 $Y=64.425
Rb1841	net4#446	net4#840	2.000000	$METTP	$W=2.988e-05
+ $X=223.715 $Y=64.425
Rb1842	net4#446	net4#840	2.000000	$METTP	$W=2.988e-05
+ $X=221.295 $Y=64.425
Rb1843	net4#446	net4#840	2.000000	$METTP	$W=2.988e-05
+ $X=218.875 $Y=64.425
Rb1844	net4#446	net4#840	2.000000	$METTP	$W=2.988e-05
+ $X=216.455 $Y=64.425
Rb1845	net4#446	net4#840	2.000000	$METTP	$W=2.988e-05
+ $X=214.035 $Y=64.425
Rb1846	net4#446	net4#840	2.000000	$METTP	$W=2.988e-05
+ $X=211.615 $Y=64.425
Rb1847	net4#446	net4#840	2.000000	$METTP	$W=2.988e-05
+ $X=209.195 $Y=64.425
Rb1848	net4#446	net4#840	2.000000	$METTP	$W=2.988e-05
+ $X=206.775 $Y=64.425
Rb1849	net4#446	net4#840	2.000000	$METTP	$W=2.988e-05
+ $X=204.355 $Y=64.425
Rb1850	net4#446	net4#840	2.000000	$METTP	$W=2.988e-05
+ $X=201.935 $Y=64.425
Rb1851	net4#446	net4#840	2.000000	$METTP	$W=2.988e-05
+ $X=199.515 $Y=64.425
Rb1852	net4#446	net4#840	2.000000	$METTP	$W=2.988e-05
+ $X=197.095 $Y=64.425
Rb1853	net4#446	net4#853	2.000000	$METTP	$W=2.988e-05
+ $X=226.135 $Y=66.845
Rb1854	net4#446	net4#853	2.000000	$METTP	$W=2.988e-05
+ $X=223.715 $Y=66.845
Rb1855	net4#446	net4#853	2.000000	$METTP	$W=2.988e-05
+ $X=221.295 $Y=66.845
Rb1856	net4#446	net4#853	2.000000	$METTP	$W=2.988e-05
+ $X=218.875 $Y=66.845
Rb1857	net4#446	net4#853	2.000000	$METTP	$W=2.988e-05
+ $X=216.455 $Y=66.845
Rb1858	net4#446	net4#853	2.000000	$METTP	$W=2.988e-05
+ $X=214.035 $Y=66.845
Rb1859	net4#446	net4#853	2.000000	$METTP	$W=2.988e-05
+ $X=211.615 $Y=66.845
Rb1860	net4#446	net4#853	2.000000	$METTP	$W=2.988e-05
+ $X=209.195 $Y=66.845
Rb1861	net4#446	net4#853	2.000000	$METTP	$W=2.988e-05
+ $X=206.775 $Y=66.845
Rb1862	net4#446	net4#853	2.000000	$METTP	$W=2.988e-05
+ $X=204.355 $Y=66.845
Rb1863	net4#446	net4#853	2.000000	$METTP	$W=2.988e-05
+ $X=201.935 $Y=66.845
Rb1864	net4#446	net4#853	2.000000	$METTP	$W=2.988e-05
+ $X=199.515 $Y=66.845
Rb1865	net4#446	net4#853	2.000000	$METTP	$W=2.988e-05
+ $X=197.095 $Y=66.845
Rb1866	net4#446	net4#866	2.000000	$METTP	$W=2.988e-05
+ $X=226.135 $Y=69.265
Rb1867	net4#446	net4#866	2.000000	$METTP	$W=2.988e-05
+ $X=223.715 $Y=69.265
Rb1868	net4#446	net4#866	2.000000	$METTP	$W=2.988e-05
+ $X=221.295 $Y=69.265
Rb1869	net4#446	net4#866	2.000000	$METTP	$W=2.988e-05
+ $X=218.875 $Y=69.265
Rb1870	net4#446	net4#866	2.000000	$METTP	$W=2.988e-05
+ $X=216.455 $Y=69.265
Rb1871	net4#446	net4#866	2.000000	$METTP	$W=2.988e-05
+ $X=214.035 $Y=69.265
Rb1872	net4#446	net4#866	2.000000	$METTP	$W=2.988e-05
+ $X=211.615 $Y=69.265
Rb1873	net4#446	net4#866	2.000000	$METTP	$W=2.988e-05
+ $X=209.195 $Y=69.265
Rb1874	net4#446	net4#866	2.000000	$METTP	$W=2.988e-05
+ $X=206.775 $Y=69.265
Rb1875	net4#446	net4#866	2.000000	$METTP	$W=2.988e-05
+ $X=204.355 $Y=69.265
Rb1876	net4#446	net4#866	2.000000	$METTP	$W=2.988e-05
+ $X=201.935 $Y=69.265
Rb1877	net4#446	net4#866	2.000000	$METTP	$W=2.988e-05
+ $X=199.515 $Y=69.265
Rb1878	net4#537	net4#878	2.000000	$METTP	$W=2.988e-05
+ $X=226.135 $Y=88.765
Rb1879	net4#537	net4#878	2.000000	$METTP	$W=2.988e-05
+ $X=223.715 $Y=88.765
Rb1880	net4#537	net4#878	2.000000	$METTP	$W=2.988e-05
+ $X=221.295 $Y=88.765
Rb1881	net4#537	net4#878	2.000000	$METTP	$W=2.988e-05
+ $X=218.875 $Y=88.765
Rb1882	net4#537	net4#878	2.000000	$METTP	$W=2.988e-05
+ $X=216.455 $Y=88.765
Rb1883	net4#537	net4#878	2.000000	$METTP	$W=2.988e-05
+ $X=214.035 $Y=88.765
Rb1884	net4#537	net4#878	2.000000	$METTP	$W=2.988e-05
+ $X=211.615 $Y=88.765
Rb1885	net4#537	net4#878	2.000000	$METTP	$W=2.988e-05
+ $X=209.195 $Y=88.765
Rb1886	net4#537	net4#878	2.000000	$METTP	$W=2.988e-05
+ $X=206.775 $Y=88.765
Rb1887	net4#537	net4#878	2.000000	$METTP	$W=2.988e-05
+ $X=204.355 $Y=88.765
Rb1888	net4#537	net4#878	2.000000	$METTP	$W=2.988e-05
+ $X=201.935 $Y=88.765
Rb1889	net4#537	net4#878	2.000000	$METTP	$W=2.988e-05
+ $X=199.515 $Y=88.765
Rb1890	net4#537	net4#878	2.000000	$METTP	$W=2.988e-05
+ $X=197.095 $Y=88.765
Rb1891	net4#537	net4#891	2.000000	$METTP	$W=2.988e-05
+ $X=226.135 $Y=91.185
Rb1892	net4#537	net4#891	2.000000	$METTP	$W=2.988e-05
+ $X=223.715 $Y=91.185
Rb1893	net4#537	net4#891	2.000000	$METTP	$W=2.988e-05
+ $X=221.295 $Y=91.185
Rb1894	net4#537	net4#891	2.000000	$METTP	$W=2.988e-05
+ $X=218.875 $Y=91.185
Rb1895	net4#537	net4#891	2.000000	$METTP	$W=2.988e-05
+ $X=216.455 $Y=91.185
Rb1896	net4#537	net4#891	2.000000	$METTP	$W=2.988e-05
+ $X=214.035 $Y=91.185
Rb1897	net4#537	net4#891	2.000000	$METTP	$W=2.988e-05
+ $X=211.615 $Y=91.185
Rb1898	net4#537	net4#891	2.000000	$METTP	$W=2.988e-05
+ $X=209.195 $Y=91.185
Rb1899	net4#537	net4#891	2.000000	$METTP	$W=2.988e-05
+ $X=206.775 $Y=91.185
Rb1900	net4#537	net4#891	2.000000	$METTP	$W=2.988e-05
+ $X=204.355 $Y=91.185
Rb1901	net4#537	net4#891	2.000000	$METTP	$W=2.988e-05
+ $X=201.935 $Y=91.185
Rb1902	net4#537	net4#891	2.000000	$METTP	$W=2.988e-05
+ $X=199.515 $Y=91.185
Rb1903	net4#537	net4#891	2.000000	$METTP	$W=2.988e-05
+ $X=197.095 $Y=91.185
Rb1904	net4#537	net4#904	2.000000	$METTP	$W=2.988e-05
+ $X=226.135 $Y=93.605
Rb1905	net4#537	net4#904	2.000000	$METTP	$W=2.988e-05
+ $X=223.715 $Y=93.605
Rb1906	net4#537	net4#904	2.000000	$METTP	$W=2.988e-05
+ $X=221.295 $Y=93.605
Rb1907	net4#537	net4#904	2.000000	$METTP	$W=2.988e-05
+ $X=218.875 $Y=93.605
Rb1908	net4#537	net4#904	2.000000	$METTP	$W=2.988e-05
+ $X=216.455 $Y=93.605
Rb1909	net4#537	net4#904	2.000000	$METTP	$W=2.988e-05
+ $X=214.035 $Y=93.605
Rb1910	net4#537	net4#904	2.000000	$METTP	$W=2.988e-05
+ $X=211.615 $Y=93.605
Rb1911	net4#537	net4#904	2.000000	$METTP	$W=2.988e-05
+ $X=209.195 $Y=93.605
Rb1912	net4#537	net4#904	2.000000	$METTP	$W=2.988e-05
+ $X=206.775 $Y=93.605
Rb1913	net4#537	net4#904	2.000000	$METTP	$W=2.988e-05
+ $X=204.355 $Y=93.605
Rb1914	net4#537	net4#904	2.000000	$METTP	$W=2.988e-05
+ $X=201.935 $Y=93.605
Rb1915	net4#537	net4#904	2.000000	$METTP	$W=2.988e-05
+ $X=199.515 $Y=93.605
Rb1916	net4#537	net4#904	2.000000	$METTP	$W=2.988e-05
+ $X=197.095 $Y=93.605
Rb1917	net4#537	net4#917	2.000000	$METTP	$W=2.988e-05
+ $X=226.135 $Y=96.025
Rb1918	net4#537	net4#917	2.000000	$METTP	$W=2.988e-05
+ $X=223.715 $Y=96.025
Rb1919	net4#537	net4#917	2.000000	$METTP	$W=2.988e-05
+ $X=221.295 $Y=96.025
Rb1920	net4#537	net4#917	2.000000	$METTP	$W=2.988e-05
+ $X=218.875 $Y=96.025
Rb1921	net4#537	net4#917	2.000000	$METTP	$W=2.988e-05
+ $X=216.455 $Y=96.025
Rb1922	net4#537	net4#917	2.000000	$METTP	$W=2.988e-05
+ $X=214.035 $Y=96.025
Rb1923	net4#537	net4#917	2.000000	$METTP	$W=2.988e-05
+ $X=211.615 $Y=96.025
Rb1924	net4#537	net4#917	2.000000	$METTP	$W=2.988e-05
+ $X=209.195 $Y=96.025
Rb1925	net4#537	net4#917	2.000000	$METTP	$W=2.988e-05
+ $X=206.775 $Y=96.025
Rb1926	net4#537	net4#917	2.000000	$METTP	$W=2.988e-05
+ $X=204.355 $Y=96.025
Rb1927	net4#537	net4#917	2.000000	$METTP	$W=2.988e-05
+ $X=201.935 $Y=96.025
Rb1928	net4#537	net4#917	2.000000	$METTP	$W=2.988e-05
+ $X=199.515 $Y=96.025
Rb1929	net4#537	net4#917	2.000000	$METTP	$W=2.988e-05
+ $X=197.095 $Y=96.025
Rb1930	net4#537	net4#930	2.000000	$METTP	$W=2.988e-05
+ $X=226.135 $Y=98.445
Rb1931	net4#537	net4#930	2.000000	$METTP	$W=2.988e-05
+ $X=223.715 $Y=98.445
Rb1932	net4#537	net4#930	2.000000	$METTP	$W=2.988e-05
+ $X=221.295 $Y=98.445
Rb1933	net4#537	net4#930	2.000000	$METTP	$W=2.988e-05
+ $X=218.875 $Y=98.445
Rb1934	net4#537	net4#930	2.000000	$METTP	$W=2.988e-05
+ $X=216.455 $Y=98.445
Rb1935	net4#537	net4#930	2.000000	$METTP	$W=2.988e-05
+ $X=214.035 $Y=98.445
Rb1936	net4#537	net4#930	2.000000	$METTP	$W=2.988e-05
+ $X=211.615 $Y=98.445
Rb1937	net4#537	net4#930	2.000000	$METTP	$W=2.988e-05
+ $X=209.195 $Y=98.445
Rb1938	net4#537	net4#930	2.000000	$METTP	$W=2.988e-05
+ $X=206.775 $Y=98.445
Rb1939	net4#537	net4#930	2.000000	$METTP	$W=2.988e-05
+ $X=204.355 $Y=98.445
Rb1940	net4#537	net4#930	2.000000	$METTP	$W=2.988e-05
+ $X=201.935 $Y=98.445
Rb1941	net4#537	net4#930	2.000000	$METTP	$W=2.988e-05
+ $X=199.515 $Y=98.445
Rb1942	net4#537	net4#930	2.000000	$METTP	$W=2.988e-05
+ $X=197.095 $Y=98.445
Rb1943	net4#537	net4#943	2.000000	$METTP	$W=2.988e-05
+ $X=226.135 $Y=100.865
Rb1944	net4#537	net4#943	2.000000	$METTP	$W=2.988e-05
+ $X=223.715 $Y=100.865
Rb1945	net4#537	net4#943	2.000000	$METTP	$W=2.988e-05
+ $X=221.295 $Y=100.865
Rb1946	net4#537	net4#943	2.000000	$METTP	$W=2.988e-05
+ $X=218.875 $Y=100.865
Rb1947	net4#537	net4#943	2.000000	$METTP	$W=2.988e-05
+ $X=216.455 $Y=100.865
Rb1948	net4#537	net4#943	2.000000	$METTP	$W=2.988e-05
+ $X=214.035 $Y=100.865
Rb1949	net4#537	net4#943	2.000000	$METTP	$W=2.988e-05
+ $X=211.615 $Y=100.865
Rb1950	net4#537	net4#943	2.000000	$METTP	$W=2.988e-05
+ $X=209.195 $Y=100.865
Rb1951	net4#537	net4#943	2.000000	$METTP	$W=2.988e-05
+ $X=206.775 $Y=100.865
Rb1952	net4#537	net4#943	2.000000	$METTP	$W=2.988e-05
+ $X=204.355 $Y=100.865
Rb1953	net4#537	net4#943	2.000000	$METTP	$W=2.988e-05
+ $X=201.935 $Y=100.865
Rb1954	net4#537	net4#943	2.000000	$METTP	$W=2.988e-05
+ $X=199.515 $Y=100.865
Rb1955	net4#628	net4#955	2.000000	$METTP	$W=2.988e-05
+ $X=226.135 $Y=120.365
Rb1956	net4#628	net4#955	2.000000	$METTP	$W=2.988e-05
+ $X=223.715 $Y=120.365
Rb1957	net4#628	net4#955	2.000000	$METTP	$W=2.988e-05
+ $X=221.295 $Y=120.365
Rb1958	net4#628	net4#955	2.000000	$METTP	$W=2.988e-05
+ $X=218.875 $Y=120.365
Rb1959	net4#628	net4#955	2.000000	$METTP	$W=2.988e-05
+ $X=216.455 $Y=120.365
Rb1960	net4#628	net4#955	2.000000	$METTP	$W=2.988e-05
+ $X=214.035 $Y=120.365
Rb1961	net4#628	net4#955	2.000000	$METTP	$W=2.988e-05
+ $X=211.615 $Y=120.365
Rb1962	net4#628	net4#955	2.000000	$METTP	$W=2.988e-05
+ $X=209.195 $Y=120.365
Rb1963	net4#628	net4#955	2.000000	$METTP	$W=2.988e-05
+ $X=206.775 $Y=120.365
Rb1964	net4#628	net4#955	2.000000	$METTP	$W=2.988e-05
+ $X=204.355 $Y=120.365
Rb1965	net4#628	net4#955	2.000000	$METTP	$W=2.988e-05
+ $X=201.935 $Y=120.365
Rb1966	net4#628	net4#955	2.000000	$METTP	$W=2.988e-05
+ $X=199.515 $Y=120.365
Rb1967	net4#628	net4#955	2.000000	$METTP	$W=2.988e-05
+ $X=197.095 $Y=120.365
Rb1968	net4#628	net4#968	2.000000	$METTP	$W=2.988e-05
+ $X=226.135 $Y=122.785
Rb1969	net4#628	net4#968	2.000000	$METTP	$W=2.988e-05
+ $X=223.715 $Y=122.785
Rb1970	net4#628	net4#968	2.000000	$METTP	$W=2.988e-05
+ $X=221.295 $Y=122.785
Rb1971	net4#628	net4#968	2.000000	$METTP	$W=2.988e-05
+ $X=218.875 $Y=122.785
Rb1972	net4#628	net4#968	2.000000	$METTP	$W=2.988e-05
+ $X=216.455 $Y=122.785
Rb1973	net4#628	net4#968	2.000000	$METTP	$W=2.988e-05
+ $X=214.035 $Y=122.785
Rb1974	net4#628	net4#968	2.000000	$METTP	$W=2.988e-05
+ $X=211.615 $Y=122.785
Rb1975	net4#628	net4#968	2.000000	$METTP	$W=2.988e-05
+ $X=209.195 $Y=122.785
Rb1976	net4#628	net4#968	2.000000	$METTP	$W=2.988e-05
+ $X=206.775 $Y=122.785
Rb1977	net4#628	net4#968	2.000000	$METTP	$W=2.988e-05
+ $X=204.355 $Y=122.785
Rb1978	net4#628	net4#968	2.000000	$METTP	$W=2.988e-05
+ $X=201.935 $Y=122.785
Rb1979	net4#628	net4#968	2.000000	$METTP	$W=2.988e-05
+ $X=199.515 $Y=122.785
Rb1980	net4#628	net4#968	2.000000	$METTP	$W=2.988e-05
+ $X=197.095 $Y=122.785
Rb1981	net4#628	net4#981	2.000000	$METTP	$W=2.988e-05
+ $X=226.135 $Y=125.205
Rb1982	net4#628	net4#981	2.000000	$METTP	$W=2.988e-05
+ $X=223.715 $Y=125.205
Rb1983	net4#628	net4#981	2.000000	$METTP	$W=2.988e-05
+ $X=221.295 $Y=125.205
Rb1984	net4#628	net4#981	2.000000	$METTP	$W=2.988e-05
+ $X=218.875 $Y=125.205
Rb1985	net4#628	net4#981	2.000000	$METTP	$W=2.988e-05
[...]
C5978	net8#6	GNDA	9.90799e-18	$X=165.258 $Y=150.7045
C5979	net7#90	GNDA	9.36771e-19	$X=164.379 $Y=161.774
C5980	RES_BIAS#63	GNDA	2.85653e-15	$X=157.185 $Y=149.513
C5981	net7#88	GNDA	1.48441e-19	$X=161.8095 $Y=161.774
C5982	VDDA#402	GNDA	3.47215e-15	$X=150.084 $Y=208.273
C5983	net7#80	GNDA	2.38742e-18	$X=149.501 $Y=189.322
C5984	net102#22	GNDA	2.38086e-18	$X=147.1865 $Y=190.5085
C5985	VDDA#178	GNDA	2.38086e-18	$X=142.6515 $Y=189.322
C5986	net102#13	GNDA	2.38086e-18	$X=138.9835 $Y=190.506
C5987	VDDA#175	GNDA	1.75866e-16	$X=136.456 $Y=190.574
C5988	VDDA#128	GNDA	7.76072e-18	$X=122.998 $Y=188.1185
C5989	VDDA#131	GNDA	2.65304e-18	$X=122.7055 $Y=172.6105
C5990	OUT1#19	GNDA	4.01818e-15	$X=129.9955 $Y=96.891
C5991	OUT1#25	GNDA	1.17482e-15	$X=120.9735 $Y=54.2905
C5992	OUT1#31	GNDA	1.19844e-15	$X=120.9735 $Y=23.007
C5993	VDDA#118	GNDA	2.91971e-18	$X=112.8405 $Y=172.5995
C5994	net6#164	GNDA	2.65304e-18	$X=114.5165 $Y=187.9045
C5995	net6#157	GNDA	1.09084e-18	$X=110.9765 $Y=201.4525
C5996	net6#161	GNDA	5.34892e-18	$X=106.183 $Y=184.2685
C5997	VDDA#109	GNDA	5.34892e-18	$X=101.6595 $Y=190.279
C5998	net4#113	GNDA	1.28423e-17	$X=101.2955 $Y=189.09
C5999	net6#153	GNDA	8.49246e-18	$X=103.716 $Y=170.222
C6000	net6#150	GNDA	2.42921e-18	$X=96.3485 $Y=184.2685
C6001	VDDA#103	GNDA	2.42921e-18	$X=90.4195 $Y=190.279
C6002	VDDA#106	GNDA	2.91971e-18	$X=90.4195 $Y=172.5995
C6003	net6#139	GNDA	5.34892e-18	$X=83.7035 $Y=184.2685
C6004	OUT2#19	GNDA	5.82506e-15	$X=97.3615 $Y=98.7105
C6005	OUT2#25	GNDA	8.56981e-16	$X=84.0105 $Y=54.3505
C6006	OUT2#31	GNDA	8.77901e-16	$X=84.0105 $Y=23.067
C6007	RES_BIAS#60	GNDA	2.85805e-16	$X=82.8495 $Y=149.149
C6008	net3#4	GNDA	2.72741e-16	$X=82.7995 $Y=119.324
C6009	VDDA#97	GNDA	5.34892e-18	$X=79.18 $Y=190.2795
C6010	net4#107	GNDA	7.27018e-18	$X=78.4805 $Y=189.0905
C6011	net6#131	GNDA	2.91971e-18	$X=78.4805 $Y=170.2245
C6012	VDDA#165	GNDA	2.12855e-15	$X=69.497 $Y=207.067
C6013	net6#128	GNDA	2.42921e-18	$X=73.8685 $Y=184.2685
C6014	VDDA#66	GNDA	2.42921e-18	$X=67.94 $Y=190.279
C6015	VDDA#69	GNDA	2.91971e-18	$X=67.94 $Y=172.6
C6016	COM#158	GNDA	6.22854e-18	$X=66.6595 $Y=138.458
C6017	COM#160	GNDA	4.26772e-18	$X=66.6595 $Y=123.3
C6018	COM#154	GNDA	1.80335e-18	$X=65.4245 $Y=132.869
C6019	COM#156	GNDA	1.80335e-18	$X=65.4245 $Y=128.889
C6020	COM#150	GNDA	8.05533e-18	$X=64.1195 $Y=138.51
C6021	net6#109	GNDA	8.05533e-18	$X=63.2595 $Y=138.732
C6022	net4#101	GNDA	1.73053e-17	$X=63.2595 $Y=123.0255
C6023	net5#27	GNDA	1.10097e-15	$X=64.431 $Y=53.283
C6024	RES_BIAS#58	GNDA	1.02334e-17	$X=61.8345 $Y=132.614
C6025	BIAS#122	GNDA	1.27948e-16	$X=61.3255 $Y=65.273
C6026	net6#117	GNDA	5.34892e-18	$X=61.224 $Y=184.2685
C6027	COM#140	GNDA	2.06502e-16	$X=59.99 $Y=55.1595
C6028	net4#99	GNDA	1.19344e-17	$X=59.8595 $Y=138.9545
C6029	net6#107	GNDA	2.11843e-17	$X=59.8595 $Y=122.803
C6030	BIAS#116	GNDA	8.61392e-17	$X=58.7195 $Y=65.273
C6031	net5#24	GNDA	2.01869e-16	$X=57.45 $Y=55.001
C6032	BIAS#110	GNDA	8.60065e-17	$X=56.1795 $Y=65.273
C6033	VDDA#60	GNDA	5.34892e-18	$X=56.7005 $Y=190.2795
C6034	net6#105	GNDA	8.05533e-18	$X=56.4595 $Y=138.732
C6035	net4#97	GNDA	1.73053e-17	$X=56.4595 $Y=123.0255
C6036	net4#95	GNDA	7.27018e-18	$X=56.0015 $Y=189.0905
C6037	net6#103	GNDA	2.91971e-18	$X=56.0015 $Y=170.2245
C6038	RES_BIAS#54	GNDA	7.19088e-18	$X=55.0345 $Y=132.614
C6039	COM#125	GNDA	2.48931e-16	$X=54.778 $Y=53.8145
C6040	net5#21	GNDA	5.96992e-16	$X=53.316 $Y=13.336
C6041	BIAS#104	GNDA	8.60065e-17	$X=53.6395 $Y=65.273
C6042	net4#92	GNDA	1.19344e-17	$X=53.0595 $Y=138.9545
C6043	net6#92	GNDA	2.11843e-17	$X=53.0595 $Y=122.803
C6044	net5#18	GNDA	2.05377e-16	$X=52.37 $Y=55.001
C6045	BIAS#98	GNDA	8.60237e-17	$X=51.0995 $Y=65.273
C6046	net123#81	GNDA	5.14194e-16	$X=54.7455 $Y=25.276
C6047	net6#100	GNDA	2.42921e-18	$X=51.389 $Y=184.2685
C6048	COM#110	GNDA	2.71133e-16	$X=49.8305 $Y=53.8145
C6049	net6#90	GNDA	8.05533e-18	$X=49.6595 $Y=138.732
C6050	net4#90	GNDA	1.73053e-17	$X=49.6595 $Y=123.0255
C6051	BIAS#92	GNDA	8.60065e-17	$X=48.5595 $Y=65.273
C6052	net5#15	GNDA	5.45757e-16	$X=48.6355 $Y=29.4255
C6053	net123#77	GNDA	7.71362e-16	$X=50.313 $Y=12.483
C6054	net5#12	GNDA	2.05377e-16	$X=47.2905 $Y=55.001
C6055	BIAS#86	GNDA	8.61219e-17	$X=46.0195 $Y=65.273
C6056	net4#88	GNDA	1.19344e-17	$X=46.2595 $Y=138.9545
C6057	net6#88	GNDA	2.11843e-17	$X=46.2595 $Y=122.803
C6058	VDDA#54	GNDA	2.42921e-18	$X=45.461 $Y=190.279
C6059	VDDA#57	GNDA	2.91971e-18	$X=45.461 $Y=172.5995
C6060	net123#70	GNDA	4.28365e-16	$X=50.065 $Y=41.2395
C6061	net123#74	GNDA	1.45632e-16	$X=45.786 $Y=25.2755
C6062	COM#95	GNDA	3.23487e-16	$X=44.662 $Y=53.8145
C6063	BIAS#80	GNDA	1.10923e-16	$X=43.4145 $Y=65.273
C6064	net6#75	GNDA	8.05533e-18	$X=42.8595 $Y=138.732
C6065	net4#83	GNDA	1.73053e-17	$X=42.8595 $Y=123.0255
C6066	net5#9	GNDA	2.4197e-16	$X=42.545 $Y=55.001
C6067	net123#66	GNDA	3.16144e-16	$X=42.028 $Y=28.58
C6068	net7#71	GNDA	9.46999e-16	$X=39.0005 $Y=14.191
C6069	net6#83	GNDA	5.34892e-18	$X=38.744 $Y=184.2685
C6070	net4#81	GNDA	1.19344e-17	$X=39.46 $Y=138.9545
C6071	net6#73	GNDA	2.11843e-17	$X=39.46 $Y=122.803
C6072	net123#59	GNDA	1.28272e-16	$X=39.1995 $Y=41.2395
C6073	net123#63	GNDA	1.40457e-16	$X=38.766 $Y=25.2755
C6074	net123#55	GNDA	2.2889e-16	$X=37.2605 $Y=55.221
C6075	BIAS#76	GNDA	7.03145e-17	$X=36.3135 $Y=65.373
C6076	net6#71	GNDA	8.05533e-18	$X=36.06 $Y=138.732
C6077	net4#79	GNDA	9.24992e-18	$X=36.06 $Y=123.0255
C6078	net5#6	GNDA	7.68706e-16	$X=33.0035 $Y=29.426
C6079	net123#52	GNDA	6.14963e-16	$X=34.993 $Y=12.4825
C6080	BIAS#72	GNDA	4.86149e-16	$X=36.493 $Y=54.875
C6081	VDDA#48	GNDA	5.34892e-18	$X=34.221 $Y=190.279
C6082	BIAS#69	GNDA	6.83221e-17	$X=33.7845 $Y=65.373
C6083	net4#77	GNDA	1.09034e-17	$X=30.8845 $Y=189.0875
C6084	net6#69	GNDA	4.18771e-18	$X=33.2455 $Y=170.231
C6085	net123#45	GNDA	1.28272e-16	$X=32.9595 $Y=41.2395
C6086	net123#49	GNDA	1.45632e-16	$X=33.306 $Y=25.2755
C6087	net123#41	GNDA	2.05377e-16	$X=32.5155 $Y=55.221
C6088	net4#74	GNDA	1.19344e-17	$X=32.66 $Y=138.9545
C6089	net6#58	GNDA	1.3129e-17	$X=32.66 $Y=122.803
C6090	BIAS#65	GNDA	6.82272e-17	$X=31.2445 $Y=65.373
C6091	BIAS#61	GNDA	2.6485e-16	$X=29.9755 $Y=54.0345
C6092	net123#38	GNDA	3.16144e-16	$X=29.5485 $Y=28.58
C6093	net5#3	GNDA	8.36745e-16	$X=28.844 $Y=13.3365
C6094	net6#56	GNDA	8.05533e-18	$X=29.26 $Y=138.732
C6095	net4#72	GNDA	9.24992e-18	$X=29.26 $Y=123.0255
C6096	BIAS#58	GNDA	6.82272e-17	$X=28.7045 $Y=65.373
C6097	net6#66	GNDA	7.1761e-18	$X=27.089 $Y=184.2675
C6098	net123#27	GNDA	2.05377e-16	$X=27.4355 $Y=55.221
C6099	net123#31	GNDA	1.6736e-16	$X=25.9585 $Y=41.2395
C6100	net123#35	GNDA	2.01569e-16	$X=25.525 $Y=25.2755
C6101	BIAS#54	GNDA	6.82272e-17	$X=26.1645 $Y=65.373
C6102	net4#70	GNDA	1.19344e-17	$X=25.86 $Y=138.9545
C6103	net6#54	GNDA	1.3129e-17	$X=25.86 $Y=122.803
C6104	BIAS#50	GNDA	2.17389e-16	$X=25.172 $Y=54.0345
C6105	BIAS#47	GNDA	6.82552e-17	$X=23.6245 $Y=65.373
C6106	VDDA#42	GNDA	2.09386e-18	$X=22.98 $Y=191.463
C6107	VDDA#45	GNDA	2.09386e-18	$X=22.98 $Y=173.7835
C6108	net123#24	GNDA	2.04884e-16	$X=22.402 $Y=55.221
C6109	net6#52	GNDA	8.05533e-18	$X=22.46 $Y=138.732
C6110	net4#68	GNDA	9.24992e-18	$X=22.46 $Y=123.0255
C6111	VDDA#39	GNDA	5.08225e-18	$X=22.895 $Y=190.2895
C6112	VDDA#36	GNDA	2.09386e-18	$X=22.4565 $Y=172.6065
C6113	BIAS#43	GNDA	6.82941e-17	$X=21.0845 $Y=65.373
C6114	BIAS#39	GNDA	2.30141e-16	$X=19.451 $Y=54.0345
C6115	net4#66	GNDA	1.19344e-17	$X=19.06 $Y=138.9545
C6116	net6#50	GNDA	3.87908e-18	$X=19.06 $Y=122.803
C6117	RES_BIAS#32	GNDA	1.49437e-17	$X=17.7895 $Y=128.967
C6118	BIAS#36	GNDA	1.04331e-16	$X=18.412 $Y=65.373
C6119	net123#21	GNDA	1.37124e-16	$X=17.275 $Y=56.2695
C6120	COM#14	GNDA	1.80111e-18	$X=14.3545 $Y=132.869
C6121	COM#16	GNDA	1.80111e-18	$X=14.3545 $Y=128.889
C6122	COM#10	GNDA	4.31392e-18	$X=13.12 $Y=138.4575
C6123	COM#12	GNDA	4.41565e-18	$X=13.12 $Y=123.3005
C6124	VDDA#33	GNDA	7.76072e-18	$X=12.1815 $Y=188.1185
C6125	VDDA#23	GNDA	2.65304e-18	$X=12.474 $Y=172.6105
C6126	VDDA#85	GNDA	2.34975e-15	$X=9.7615 $Y=138.3925
C6127	net7#67	GNDA	7.96858e-18	$X=227.549 $Y=160.1405
C6128	net7#65	GNDA	2.00415e-17	$X=226.009 $Y=160.1405
C6129	net7#63	GNDA	2.5519e-17	$X=224.469 $Y=160.1405
C6130	net7#61	GNDA	1.71675e-17	$X=222.929 $Y=160.1405
C6131	net7#59	GNDA	1.45592e-17	$X=221.389 $Y=160.1405
C6132	net7#57	GNDA	1.45592e-17	$X=219.849 $Y=160.1405
C6133	net4#61	GNDA	5.03818e-18	$X=218.5135 $Y=206.0365
C6134	net4#63	GNDA	1.01632e-17	$X=218.5135 $Y=186.017
C6135	net7#55	GNDA	1.45592e-17	$X=218.309 $Y=160.1405
C6136	net7#53	GNDA	7.27958e-18	$X=216.769 $Y=160.1405
C6137	net4#57	GNDA	2.42809e-18	$X=215.2735 $Y=206.0365
C6138	net4#59	GNDA	2.23313e-18	$X=215.2735 $Y=186.017
C6139	net7#51	GNDA	7.27958e-18	$X=215.229 $Y=160.1405
C6140	net7#49	GNDA	1.48524e-17	$X=213.689 $Y=160.1405
C6141	net4#53	GNDA	1.6929e-18	$X=212.0335 $Y=206.0365
C6142	net4#55	GNDA	2.23313e-18	$X=212.0335 $Y=186.017
C6143	net4#49	GNDA	2.42809e-18	$X=208.7935 $Y=206.0365
C6144	net4#51	GNDA	7.55314e-18	$X=208.7935 $Y=186.017
C6145	net4#45	GNDA	2.42809e-18	$X=205.5535 $Y=206.0365
C6146	net4#47	GNDA	2.23313e-18	$X=205.5535 $Y=186.017
C6147	net7#47	GNDA	7.96858e-18	$X=203.639 $Y=160.1405
C6148	net4#41	GNDA	2.42809e-18	$X=202.3135 $Y=206.0365
C6149	net4#43	GNDA	2.23313e-18	$X=202.3135 $Y=186.017
C6150	net7#45	GNDA	9.89449e-18	$X=202.099 $Y=160.1405
C6151	net7#43	GNDA	1.45592e-17	$X=200.559 $Y=160.1405
C6152	net4#37	GNDA	2.42809e-18	$X=199.0735 $Y=206.0365
C6153	net4#39	GNDA	2.23313e-18	$X=199.0735 $Y=186.017
C6154	net7#41	GNDA	1.45592e-17	$X=199.019 $Y=160.1405
C6155	net7#39	GNDA	1.45592e-17	$X=197.479 $Y=160.1405
C6156	net4#33	GNDA	2.42809e-18	$X=195.8335 $Y=206.0365
C6157	net4#35	GNDA	7.55314e-18	$X=195.8335 $Y=186.017
C6158	net7#37	GNDA	1.45592e-17	$X=195.939 $Y=160.1405
C6159	net7#35	GNDA	1.45592e-17	$X=194.399 $Y=160.1405
C6160	net4#29	GNDA	2.42809e-18	$X=192.5935 $Y=206.0365
C6161	net4#31	GNDA	2.23313e-18	$X=192.5935 $Y=186.017
C6162	net7#33	GNDA	7.27958e-18	$X=192.859 $Y=160.1405
C6163	net7#31	GNDA	7.27958e-18	$X=191.319 $Y=160.1405
C6164	net4#25	GNDA	1.66611e-18	$X=189.3535 $Y=206.0365
C6165	net4#27	GNDA	2.23313e-18	$X=189.3535 $Y=186.017
C6166	net7#29	GNDA	7.96858e-18	$X=189.779 $Y=160.1405
C6167	net4#21	GNDA	2.42809e-18	$X=186.1135 $Y=206.0365
C6168	net4#23	GNDA	2.23313e-18	$X=186.1135 $Y=186.017
C6169	net4#17	GNDA	2.42809e-18	$X=182.8735 $Y=206.0365
C6170	net4#19	GNDA	7.55314e-18	$X=182.8735 $Y=186.017
C6171	net4#13	GNDA	2.42809e-18	$X=179.6335 $Y=206.0365
C6172	net4#15	GNDA	7.55314e-18	$X=179.6335 $Y=186.017
C6173	net7#27	GNDA	7.96858e-18	$X=179.779 $Y=160.1405
C6174	net7#25	GNDA	7.27958e-18	$X=178.239 $Y=160.1405
C6175	net4#9	GNDA	2.42809e-18	$X=176.3935 $Y=206.0365
C6176	net4#11	GNDA	2.23313e-18	$X=176.3935 $Y=186.017
C6177	net7#23	GNDA	1.45592e-17	$X=176.699 $Y=160.1405
C6178	net7#21	GNDA	1.45592e-17	$X=175.159 $Y=160.1405
C6179	net4#5	GNDA	2.42809e-18	$X=173.1535 $Y=206.0365
C6180	net4#7	GNDA	2.23313e-18	$X=173.1535 $Y=186.017
C6181	net7#19	GNDA	1.45592e-17	$X=173.619 $Y=160.1405
C6182	net7#17	GNDA	1.45592e-17	$X=172.079 $Y=160.1405
C6183	net7#15	GNDA	1.45592e-17	$X=170.539 $Y=160.1405
C6184	net4	GNDA	4.66181e-18	$X=169.9135 $Y=206.0365
C6185	net4#3	GNDA	9.78686e-18	$X=169.9135 $Y=186.017
C6186	net7#13	GNDA	1.45592e-17	$X=168.999 $Y=160.1405
C6187	net7#11	GNDA	1.63541e-17	$X=167.459 $Y=160.1405
C6188	net7#9	GNDA	1.00271e-17	$X=165.919 $Y=160.1405
C6189	net7#7	GNDA	4.3652e-18	$X=164.379 $Y=160.1405
C6190	VDDA#10	GNDA	5.57214e-18	$X=118.4295 $Y=182.273
C6191	OUT1#1	GNDA	3.45806e-17	$X=122.134 $Y=98.623
C6192	OUT1#5	GNDA	6.20989e-18	$X=122.134 $Y=75.8685
C6193	OUT1#6	GNDA	6.27474e-18	$X=122.134 $Y=67.3835
C6194	OUT1#10	GNDA	6.27474e-18	$X=122.134 $Y=44.629
C6195	OUT1#11	GNDA	6.20989e-18	$X=122.134 $Y=36.1435
C6196	OUT1#15	GNDA	2.83849e-17	$X=122.134 $Y=13.389
C6197	OUT2#1	GNDA	3.46537e-17	$X=85.1695 $Y=98.683
C6198	OUT2#5	GNDA	6.20989e-18	$X=85.1695 $Y=75.9285
C6199	OUT2#6	GNDA	6.27474e-18	$X=85.1695 $Y=67.4435
C6200	OUT2#10	GNDA	6.27474e-18	$X=85.1695 $Y=44.689
C6201	OUT2#11	GNDA	6.20989e-18	$X=85.1695 $Y=36.2035
C6202	OUT2#15	GNDA	2.83849e-17	$X=85.1695 $Y=13.449
C6203	RES_BIAS#27	GNDA	1.8698e-18	$X=61.9895 $Y=134.1675
C6204	VREF#27	GNDA	1.8698e-18	$X=61.9895 $Y=127.59
C6205	BIAS#31	GNDA	1.73573e-16	$X=61.2595 $Y=64.256
C6206	BIAS#29	GNDA	1.56488e-16	$X=58.7195 $Y=64.256
C6207	VREF#25	GNDA	1.32238e-18	$X=58.5895 $Y=134.1675
C6208	RES_BIAS#25	GNDA	1.17063e-18	$X=58.5895 $Y=127.59
C6209	BIAS#27	GNDA	1.5656e-16	$X=56.1795 $Y=64.256
C6210	BIAS#25	GNDA	1.5656e-16	$X=53.6395 $Y=64.256
C6211	net123#17	GNDA	3.72232e-16	$X=51.6805 $Y=24.134
C6212	VREF#21	GNDA	1.32238e-18	$X=51.7895 $Y=134.1675
C6213	RES_BIAS#21	GNDA	1.17063e-18	$X=51.7895 $Y=127.59
C6214	BIAS#23	GNDA	1.56559e-16	$X=51.0995 $Y=64.256
C6215	BIAS#21	GNDA	1.5656e-16	$X=48.5595 $Y=64.256
C6216	net123#13	GNDA	3.79137e-16	$X=45.4405 $Y=40.233
C6217	net123#15	GNDA	3.72252e-16	$X=45.4405 $Y=24.134
C6218	BIAS#19	GNDA	1.56489e-16	$X=46.0195 $Y=64.256
C6219	VREF#17	GNDA	1.32238e-18	$X=44.9895 $Y=134.1675
C6220	RES_BIAS#17	GNDA	1.17063e-18	$X=44.9895 $Y=127.59
C6221	BIAS#17	GNDA	1.94996e-16	$X=43.48 $Y=64.256
C6222	net123#9	GNDA	3.79137e-16	$X=39.2005 $Y=40.233
C6223	net123#11	GNDA	3.72252e-16	$X=39.2005 $Y=24.134
C6224	VREF#13	GNDA	1.32238e-18	$X=38.1895 $Y=134.1675
C6225	RES_BIAS#13	GNDA	1.17063e-18	$X=38.1895 $Y=127.59
C6226	BIAS#15	GNDA	1.61286e-16	$X=36.325 $Y=64.4705
C6227	net123#5	GNDA	3.79137e-16	$X=32.9605 $Y=40.233
C6228	net123#7	GNDA	3.72252e-16	$X=32.9605 $Y=24.134
C6229	BIAS#13	GNDA	1.50433e-16	$X=33.785 $Y=64.4705
C6230	VREF#9	GNDA	1.32238e-18	$X=31.3895 $Y=134.1675
C6231	RES_BIAS#9	GNDA	1.17063e-18	$X=31.3895 $Y=127.59
C6232	BIAS#11	GNDA	1.50557e-16	$X=31.245 $Y=64.4705
C6233	BIAS#9	GNDA	1.50557e-16	$X=28.705 $Y=64.4705
C6234	net123	GNDA	3.791e-16	$X=26.721 $Y=40.233
C6235	net123#3	GNDA	3.72215e-16	$X=26.721 $Y=24.134
C6236	BIAS#7	GNDA	1.50557e-16	$X=26.165 $Y=64.4705
C6237	VREF#5	GNDA	1.32238e-18	$X=24.59 $Y=134.1675
C6238	RES_BIAS#5	GNDA	1.17063e-18	$X=24.59 $Y=127.59
C6239	BIAS#5	GNDA	1.50557e-16	$X=23.625 $Y=64.4705
C6240	BIAS#3	GNDA	1.50433e-16	$X=21.085 $Y=64.4705
C6241	BIAS#1	GNDA	1.68243e-16	$X=18.545 $Y=64.4705
C6242	VREF#1	GNDA	3.19218e-18	$X=17.79 $Y=134.1675
C6243	RES_BIAS#1	GNDA	3.04043e-18	$X=17.79 $Y=127.59
C6244	COM#3	GNDA	7.83097e-18	$X=14.39 $Y=127.59
C6245	net4#1032	GNDA	6.21749e-17	$X=178.0025 $Y=116.7115
C6246	net4#1123	GNDA	2.86485e-18	$X=178.0025 $Y=85.355
C6247	net1#46	GNDA	2.70344e-18	$X=228.2885 $Y=155.319
C6248	OUT2#46	GNDA	5.24394e-18	$X=226.7785 $Y=155.319
C6249	net1#43	GNDA	5.26534e-19	$X=225.2385 $Y=155.319
C6250	OUT2#43	GNDA	5.26534e-19	$X=223.6985 $Y=155.319
C6251	net1#40	GNDA	1.99316e-18	$X=222.1585 $Y=155.319
C6252	OUT2#40	GNDA	2.11613e-18	$X=220.6185 $Y=155.319
C6253	VDDA#304	GNDA	5.82883e-18	$X=220.4925 $Y=201.992
C6254	VDDA#296	GNDA	1.4759e-17	$X=220.4925 $Y=181.9725
C6255	net1#34	GNDA	1.99316e-18	$X=219.0785 $Y=155.319
C6256	OUT2#37	GNDA	5.26534e-19	$X=217.5385 $Y=155.319
C6257	VDDA#290	GNDA	5.88254e-18	$X=217.253 $Y=201.992
C6258	VDDA#293	GNDA	3.45246e-18	$X=217.253 $Y=181.9725
C6259	net1#31	GNDA	5.26534e-19	$X=215.9985 $Y=155.319
C6260	OUT2#34	GNDA	5.26534e-19	$X=214.4585 $Y=155.319
C6261	VDDA#284	GNDA	3.66667e-18	$X=214.013 $Y=201.992
C6262	VDDA#287	GNDA	3.45246e-18	$X=214.013 $Y=181.9725
C6263	net1#25	GNDA	3.68574e-19	$X=212.9485 $Y=155.319
C6264	VDDA#278	GNDA	2.0221e-19	$X=210.773 $Y=201.992
C6265	VDDA#281	GNDA	5.66833e-18	$X=210.773 $Y=181.9725
C6266	VDDA#272	GNDA	3.66667e-18	$X=207.533 $Y=201.992
C6267	VDDA#275	GNDA	5.66833e-18	$X=207.533 $Y=181.9725
C6268	net2#34	GNDA	3.28673e-18	$X=204.3785 $Y=155.319
C6269	VDDA#266	GNDA	3.66667e-18	$X=204.293 $Y=201.992
C6270	VDDA#269	GNDA	3.45246e-18	$X=204.293 $Y=181.9725
C6271	VDDA#260	GNDA	3.66667e-18	$X=201.053 $Y=201.992
C6272	VDDA#263	GNDA	3.45246e-18	$X=201.053 $Y=181.9725
C6273	net2#25	GNDA	1.46663e-18	$X=198.2485 $Y=155.319
C6274	VDDA#254	GNDA	3.66667e-18	$X=197.813 $Y=201.992
C6275	VDDA#257	GNDA	3.45246e-18	$X=197.813 $Y=181.9725
C6276	OUT1#40	GNDA	1.46663e-18	$X=196.7085 $Y=155.319
C6277	net2#22	GNDA	1.46663e-18	$X=195.1685 $Y=155.319
C6278	VDDA#248	GNDA	3.66667e-18	$X=194.573 $Y=201.992
C6279	VDDA#251	GNDA	3.45246e-18	$X=194.573 $Y=181.9725
C6280	VDDA#242	GNDA	3.66667e-18	$X=191.333 $Y=201.992
C6281	VDDA#245	GNDA	3.45246e-18	$X=191.333 $Y=181.9725
C6282	VDDA#236	GNDA	3.66667e-18	$X=188.093 $Y=201.992
C6283	VDDA#239	GNDA	3.45246e-18	$X=188.093 $Y=181.9725
C6284	VDDA#233	GNDA	3.45246e-18	$X=184.853 $Y=181.9725
C6285	VDDA#224	GNDA	5.88254e-18	$X=181.613 $Y=201.992
C6286	VDDA#227	GNDA	3.45246e-18	$X=181.613 $Y=181.9725
C6287	VDDA#218	GNDA	5.88254e-18	$X=178.3735 $Y=201.992
C6288	VDDA#221	GNDA	3.45246e-18	$X=178.3735 $Y=181.9725
C6289	VDDA#212	GNDA	3.66667e-18	$X=175.1335 $Y=201.992
C6290	VDDA#215	GNDA	3.45246e-18	$X=175.1335 $Y=181.9725
C6291	VDDA#206	GNDA	3.66667e-18	$X=171.8935 $Y=201.992
C6292	VDDA#209	GNDA	5.66833e-18	$X=171.8935 $Y=181.9725
C6293	RES_BIAS#61	GNDA	7.75513e-18	$X=163.609 $Y=155.319
C6294	net8	GNDA	3.28673e-18	$X=162.099 $Y=155.319
C6295	net7#78	GNDA	1.39611e-18	$X=149.889 $Y=195.1235
C6296	net102#20	GNDA	9.77277e-19	$X=147.379 $Y=195.1235
C6297	VDDA#176	GNDA	9.77277e-19	$X=142.839 $Y=195.1235
C6298	net102#11	GNDA	1.39611e-18	$X=140.329 $Y=195.1235
C6299	VDDA#173	GNDA	9.77277e-19	$X=137.819 $Y=195.1235
C6300	VDDA#125	GNDA	6.54662e-19	$X=123.429 $Y=196.109
C6301	net6#162	GNDA	4.48421e-19	$X=112.169 $Y=194.9985
C6302	net6#140	GNDA	4.48421e-19	$X=89.6895 $Y=194.9985
C6303	net6#118	GNDA	7.72722e-19	$X=67.2095 $Y=194.9985
C6304	net6#84	GNDA	4.48421e-19	$X=44.7295 $Y=194.9985
C6305	VDDA#30	GNDA	6.54662e-19	$X=11.7505 $Y=196.109
C6306	VDDA#312	GNDA	1.74458e-15	$X=196.1335 $Y=154.4355
C6307	VDDA#330	GNDA	1.45231e-15	$X=201.3935 $Y=189.984
C6308	VDDA#340	GNDA	2.80688e-15	$X=196.2245 $Y=71.4735
C6309	VDDA#334	GNDA	1.50165e-15	$X=144.7975 $Y=194.631
C6310	VDDA#132	GNDA	7.72838e-18	$X=66.012 $Y=183.6195
C6311	VDDA#70	GNDA	1.35804e-16	$X=41.2935 $Y=131.19
C6312	COM#157	GNDA	7.741e-19	$X=66.6295 $Y=138.279
C6313	COM#159	GNDA	7.741e-19	$X=66.6295 $Y=123.479
C6314	net5#25	GNDA	1.02664e-18	$X=62.4995 $Y=59.1945
C6315	COM#138	GNDA	1.46663e-18	$X=59.9895 $Y=59.1945
C6316	net123#19	GNDA	3.28673e-18	$X=17.3045 $Y=59.4145
C6317	COM#9	GNDA	7.741e-19	$X=13.1495 $Y=138.279
C6318	COM#11	GNDA	7.741e-19	$X=13.1495 $Y=123.479
C6319	VDDA#25	GNDA	3.63317e-18	$X=16.747 $Y=182.679
C6320	net6#64	GNDA	3.63509e-18	$X=29.2945 $Y=182.679
C6321	net6#81	GNDA	3.63509e-18	$X=40.5345 $Y=182.679
C6322	net6#98	GNDA	3.63509e-18	$X=51.7745 $Y=182.679
C6323	net6#115	GNDA	3.63509e-18	$X=63.0145 $Y=182.679
C6324	VDDA#94	GNDA	4.18563e-18	$X=68.5095 $Y=144.943
C6325	net6#126	GNDA	3.63509e-18	$X=74.2545 $Y=182.679
C6326	net6#137	GNDA	3.63509e-18	$X=85.4945 $Y=182.679
C6327	net6#148	GNDA	3.63509e-18	$X=96.7345 $Y=182.679
C6328	net6#155	GNDA	3.88658e-18	$X=107.9745 $Y=200.359
C6329	net6#159	GNDA	3.63509e-18	$X=107.9745 $Y=182.679
C6330	VDDA#120	GNDA	3.63509e-18	$X=117.9065 $Y=182.679
C6331	VDDA#324	GNDA	7.18836e-16	$X=157.3355 $Y=143.5335
C6332	VDDA#328	GNDA	4.28788e-16	$X=157.1335 $Y=163.491
C6333	VDDA#329	GNDA	4.11153e-16	$X=158.946 $Y=167.647
C6334	VDDA#339	GNDA	1.02812e-15	$X=164.406 $Y=137.64
C6335	VDDA#401	GNDA	2.05056e-16	$X=144.8415 $Y=204.2825
C6336	BIAS#133	GNDA	2.9951e-16	$X=39.365 $Y=61.35
C6337	net5#29	GNDA	1.45826e-15	$X=68.2305 $Y=30.082
C6338	net4#294	GNDA	2.46803e-16	$X=158.266 $Y=187.383
C6339	net4#295	GNDA	7.57821e-16	$X=131.734 $Y=183.7655
C6340	VDDA#519	GNDA	4.04807e-15	$X=118.2915 $Y=208.3225
C6341	VDDA#523	GNDA	1.67712e-17	$X=11.2645 $Y=136.384
C6342	net7#193	GNDA	6.38229e-15	$X=56.4515 $Y=51.768
C6343	net3#10	GNDA	5.15229e-17	$X=229.173 $Y=11.394
C6344	net3#14	GNDA	1.44109e-15	$X=193.575 $Y=131.3585
C6345	net3#24	GNDA	5.14909e-17	$X=193.5835 $Y=11.395
C6346	net4#349	GNDA	7.48414e-18	$X=227.886 $Y=19.2225
C6347	net4#350	GNDA	7.48414e-18	$X=227.89 $Y=54.7445
C6348	net4#351	GNDA	7.5018e-18	$X=227.89 $Y=86.3435
C6349	net4#352	GNDA	6.87887e-17	$X=227.8885 $Y=119.072
C6350	net4#353	GNDA	3.16405e-16	$X=174.735 $Y=134.2185
*
*
.ENDS ref_bias
*
