*
*
*
*                       LINUX           Mon Aug 26 08:32:06 2024
*
*
*
*  PROGRAM  advgen
*
*  Name           : advgen - Quantus - (64-bit)
*  Version        : 23.1.1-p051
*  Build Date     : Thu Feb 15 21:11:17 PST 2024
*
*  HSPICE LIBRARY
*
* GLOBAL_TEMPERATURE 27
*  OPERATING_TEMPERATURE 27
*  QRC_TECH_DIR /pkg/xfab2/XKIT/xh018/cadence/v9_0/QRC_pvs/v9_0_1/XH018_1143/QRC-Typ 
*
*!LENGTH_UNITS METERS
*
*
*
*
*       SUBCIRCUIT DEFINITIONS
*
.SUBCKT MOSVC3 G NW SB
.ENDS
*
.SUBCKT NE3I_6 D G S B NW SB
.ENDS
*

*
.SUBCKT ref_bias BIAS GNDA OUT1 OUT2 RES_BIAS VDDA VREF
*
*
*  caps2d version: 10
*
*       SUBCIRCUIT CALLS
*
XXC2 OUT2#13 GNDA GNDA MOSVC3
+ w=3e-05 l=3e-05 model=mosvc3
XXC2@1 OUT2#7 GNDA GNDA MOSVC3
+ w=3e-05 l=3e-05 model=mosvc3
XXC2@2 OUT2#1 GNDA GNDA MOSVC3
+ w=3e-05 l=3e-05 model=mosvc3
XXC0 OUT1#13 GNDA GNDA MOSVC3
+ w=3e-05 l=3e-05 model=mosvc3
XXC0@1 OUT1#7 GNDA GNDA MOSVC3
+ w=3e-05 l=3e-05 model=mosvc3
XXC0@2 OUT1#1 GNDA GNDA MOSVC3
+ w=3e-05 l=3e-05 model=mosvc3
XXM7@1 COM#283 COM#11 COM#267 COM VDDA GNDA NE3I_6	L=2e-06	W=1e-05
+ AD=4.8e-12	AS=4.8e-12	PD=2.096e-05	PS=2.096e-05
+ NRD=0.0173	NRS=0.0173
XXM12@10 net4#164 VREF#41 COM#253 COM VDDA GNDA NE3I_6	L=2e-06	W=1e-05
+ AD=4.8e-12	AS=4.8e-12	PD=2.096e-05	PS=2.096e-05
+ NRD=0.0173	NRS=0.0173
XXM7@3 COM#279 COM#8 COM#263 COM VDDA GNDA NE3I_6	L=2e-06	W=1e-05
+ AD=4.8e-12	AS=4.8e-12	PD=2.096e-05	PS=2.096e-05
+ NRD=0.0173	NRS=0.0173
XXM24@11 net6#164 RES_BIAS#41 COM#249 COM VDDA GNDA NE3I_6	L=2e-06	W=1e-05
+ AD=4.8e-12	AS=4.8e-12	PD=2.096e-05	PS=2.096e-05
+ NRD=0.0173	NRS=0.0173
XXM24@10 net6#160 RES_BIAS#38 COM#233 COM VDDA GNDA NE3I_6	L=2e-06	W=1e-05
+ AD=4.8e-12	AS=4.8e-12	PD=2.096e-05	PS=2.096e-05
+ NRD=0.0173	NRS=0.0173
XXM12@7 net4#156 VREF#35 COM#213 COM VDDA GNDA NE3I_6	L=2e-06	W=1e-05
+ AD=4.8e-12	AS=4.8e-12	PD=2.096e-05	PS=2.096e-05
+ NRD=0.0173	NRS=0.0173
XXM12@11 net4#160 VREF#38 COM#229 COM VDDA GNDA NE3I_6	L=2e-06	W=1e-05
+ AD=4.8e-12	AS=4.8e-12	PD=2.096e-05	PS=2.096e-05
+ NRD=0.0173	NRS=0.0173
XXM24@7 net6#156 RES_BIAS#35 COM#209 COM VDDA GNDA NE3I_6	L=2e-06	W=1e-05
+ AD=4.8e-12	AS=4.8e-12	PD=2.096e-05	PS=2.096e-05
+ NRD=0.0173	NRS=0.0173
XXM24@9 net6#136 RES_BIAS#32 COM#199 COM VDDA GNDA NE3I_6	L=2e-06	W=1e-05
+ AD=4.8e-12	AS=4.8e-12	PD=2.096e-05	PS=2.096e-05
+ NRD=0.0173	NRS=0.0173
XXM12@1 net4#143 VREF#29 COM#179 COM VDDA GNDA NE3I_6	L=2e-06	W=1e-05
+ AD=4.8e-12	AS=4.8e-12	PD=2.096e-05	PS=2.096e-05
+ NRD=0.0173	NRS=0.0173
XXM12@4 net4#147 VREF#32 COM#195 COM VDDA GNDA NE3I_6	L=2e-06	W=1e-05
+ AD=4.8e-12	AS=4.8e-12	PD=2.096e-05	PS=2.096e-05
+ NRD=0.0173	NRS=0.0173
XXM24@1 net6#132 RES_BIAS#29 COM#175 COM VDDA GNDA NE3I_6	L=2e-06	W=1e-05
+ AD=4.8e-12	AS=4.8e-12	PD=2.096e-05	PS=2.096e-05
+ NRD=0.0173	NRS=0.0173
XXM24 net6#128 RES_BIAS#26 COM#159 COM VDDA GNDA NE3I_6	L=2e-06	W=1e-05
+ AD=4.8e-12	AS=4.8e-12	PD=2.096e-05	PS=2.096e-05
+ NRD=0.0173	NRS=0.0173
XXM12@12 net4#130 VREF#23 COM#145 COM VDDA GNDA NE3I_6	L=2e-06	W=1e-05
+ AD=4.8e-12	AS=4.8e-12	PD=2.096e-05	PS=2.096e-05
+ NRD=0.0173	NRS=0.0173
XXM12@9 net4#139 VREF#26 COM#155 COM VDDA GNDA NE3I_6	L=2e-06	W=1e-05
+ AD=4.8e-12	AS=4.8e-12	PD=2.096e-05	PS=2.096e-05
+ NRD=0.0173	NRS=0.0173
XXM24@12 net6#108 RES_BIAS#23 COM#141 COM VDDA GNDA NE3I_6	L=2e-06	W=1e-05
+ AD=4.8e-12	AS=4.8e-12	PD=2.096e-05	PS=2.096e-05
+ NRD=0.0173	NRS=0.0173
XXM24@2 net6#104 RES_BIAS#20 COM#131 COM VDDA GNDA NE3I_6	L=2e-06	W=1e-05
+ AD=4.8e-12	AS=4.8e-12	PD=2.096e-05	PS=2.096e-05
+ NRD=0.0173	NRS=0.0173
XXM12@2 net4#122 VREF#17 COM#117 COM VDDA GNDA NE3I_6	L=2e-06	W=1e-05
+ AD=4.8e-12	AS=4.8e-12	PD=2.096e-05	PS=2.096e-05
+ NRD=0.0173	NRS=0.0173
XXM12@13 net4#126 VREF#20 COM#127 COM VDDA GNDA NE3I_6	L=2e-06	W=1e-05
+ AD=4.8e-12	AS=4.8e-12	PD=2.096e-05	PS=2.096e-05
+ NRD=0.0173	NRS=0.0173
XXM24@8 net6#100 RES_BIAS#17 COM#113 COM VDDA GNDA NE3I_6	L=2e-06	W=1e-05
+ AD=4.8e-12	AS=4.8e-12	PD=2.096e-05	PS=2.096e-05
+ NRD=0.0173	NRS=0.0173
XXM24@13 net6#81 RES_BIAS#14 COM#103 COM VDDA GNDA NE3I_6	L=2e-06	W=1e-05
+ AD=4.8e-12	AS=4.8e-12	PD=2.096e-05	PS=2.096e-05
+ NRD=0.0173	NRS=0.0173
XXM12@5 net4#109 VREF#11 COM#89 COM VDDA GNDA NE3I_6	L=2e-06	W=1e-05
+ AD=4.8e-12	AS=4.8e-12	PD=2.096e-05	PS=2.096e-05
+ NRD=0.0173	NRS=0.0173
XXM12@3 net4#113 VREF#14 COM#99 COM VDDA GNDA NE3I_6	L=2e-06	W=1e-05
+ AD=4.8e-12	AS=4.8e-12	PD=2.096e-05	PS=2.096e-05
+ NRD=0.0173	NRS=0.0173
XXM24@5 net6#77 RES_BIAS#11 COM#85 COM VDDA GNDA NE3I_6	L=2e-06	W=1e-05
+ AD=4.8e-12	AS=4.8e-12	PD=2.096e-05	PS=2.096e-05
+ NRD=0.0173	NRS=0.0173
XXM24@6 net6#73 RES_BIAS#8 COM#75 COM VDDA GNDA NE3I_6	L=2e-06	W=1e-05
+ AD=4.8e-12	AS=4.8e-12	PD=2.096e-05	PS=2.096e-05
+ NRD=0.0173	NRS=0.0173
XXM12 net4#101 VREF#5 COM#61 COM VDDA GNDA NE3I_6	L=2e-06	W=1e-05
+ AD=4.8e-12	AS=4.8e-12	PD=2.096e-05	PS=2.096e-05
+ NRD=0.0173	NRS=0.0173
XXM12@6 net4#105 VREF#8 COM#71 COM VDDA GNDA NE3I_6	L=2e-06	W=1e-05
+ AD=4.8e-12	AS=4.8e-12	PD=2.096e-05	PS=2.096e-05
+ NRD=0.0173	NRS=0.0173
XXM24@3 net6#69 RES_BIAS#5 COM#57 COM VDDA GNDA NE3I_6	L=2e-06	W=1e-05
+ AD=4.8e-12	AS=4.8e-12	PD=2.096e-05	PS=2.096e-05
+ NRD=0.0173	NRS=0.0173
XXM24@4 net6#65 RES_BIAS#2 COM#47 COM VDDA GNDA NE3I_6	L=2e-06	W=1e-05
+ AD=4.8e-12	AS=4.8e-12	PD=2.096e-05	PS=2.096e-05
+ NRD=0.0173	NRS=0.0173
XXM7 COM#33 COM#5 COM#17 COM VDDA GNDA NE3I_6	L=2e-06	W=1e-05
+ AD=4.8e-12	AS=4.8e-12	PD=2.096e-05	PS=2.096e-05
+ NRD=0.0173	NRS=0.0173
XXM12@8 net4#97 VREF#2 COM#43 COM VDDA GNDA NE3I_6	L=2e-06	W=1e-05
+ AD=4.8e-12	AS=4.8e-12	PD=2.096e-05	PS=2.096e-05
+ NRD=0.0173	NRS=0.0173
XXM7@2 COM#29 COM#2 COM#13 COM VDDA GNDA NE3I_6	L=2e-06	W=1e-05
+ AD=4.8e-12	AS=4.8e-12	PD=2.096e-05	PS=2.096e-05
+ NRD=0.0173	NRS=0.0173
*
*       TRANSISTOR CARDS
*
*
MMM8@3	COM#166	BIAS#26	net5#14	GNDA	ne3	L=2e-06
+ W=1e-05
+ AD=2.7e-12	AS=4.8e-12	PD=1.054e-05	PS=2.096e-05
+ NRD=0.0173	NRS=0.0173
MMM8@2	COM#166	BIAS#29	net5#20	GNDA	ne3	L=2e-06
+ W=1e-05
+ AD=2.7e-12	AS=2.7e-12	PD=1.054e-05	PS=1.054e-05
+ NRD=0.0173	NRS=0.0173
MMM8@4	COM#192	BIAS#32	net5#20	GNDA	ne3	L=2e-06
+ W=1e-05
+ AD=2.7e-12	AS=2.7e-12	PD=1.054e-05	PS=1.054e-05
+ NRD=0.0173	NRS=0.0173
MMM8	COM#192	BIAS#35	net5#31	GNDA	ne3	L=2e-06
+ W=1e-05
+ AD=2.7e-12	AS=2.7e-12	PD=1.054e-05	PS=1.054e-05
+ NRD=0.0173	NRS=0.0173
MMM8@5	COM#220	BIAS#38	net5#31	GNDA	ne3	L=2e-06
+ W=1e-05
+ AD=2.7e-12	AS=2.7e-12	PD=1.054e-05	PS=1.054e-05
+ NRD=0.0173	NRS=0.0173
MMM8@7	COM#220	BIAS#41	net5#42	GNDA	ne3	L=2e-06
+ W=1e-05
+ AD=2.7e-12	AS=2.7e-12	PD=1.054e-05	PS=1.054e-05
+ NRD=0.0173	NRS=0.0173
MMM8@1	COM#246	BIAS#44	net5#42	GNDA	ne3	L=2e-06
+ W=1e-05
+ AD=2.7e-12	AS=2.7e-12	PD=1.054e-05	PS=1.054e-05
+ NRD=0.0173	NRS=0.0173
MMM8@6	COM#246	BIAS#47	net5#48	GNDA	ne3	L=2e-06
+ W=1e-05
+ AD=2.7e-12	AS=4.8e-12	PD=1.054e-05	PS=2.096e-05
+ NRD=0.0173	NRS=0.0173
MMM9@2	BIAS#57	BIAS#2	net123#31	GNDA	ne3	L=2e-06
+ W=1e-05
+ AD=2.7e-12	AS=4.8e-12	PD=1.054e-05	PS=2.096e-05
+ NRD=0.0173	NRS=0.0173
MMM9@3	BIAS#57	BIAS#5	net123#37	GNDA	ne3	L=2e-06
+ W=1e-05
+ AD=2.7e-12	AS=2.7e-12	PD=1.054e-05	PS=1.054e-05
+ NRD=0.0173	NRS=0.0173
MMM9@4	BIAS#73	BIAS#8	net123#37	GNDA	ne3	L=2e-06
+ W=1e-05
+ AD=2.7e-12	AS=2.7e-12	PD=1.054e-05	PS=1.054e-05
+ NRD=0.0173	NRS=0.0173
MMM9	BIAS#73	BIAS#11	net123#43	GNDA	ne3	L=2e-06
+ W=1e-05
+ AD=2.7e-12	AS=2.7e-12	PD=1.054e-05	PS=1.054e-05
+ NRD=0.0173	NRS=0.0173
MMM9@6	BIAS#89	BIAS#14	net123#43	GNDA	ne3	L=2e-06
+ W=1e-05
+ AD=2.7e-12	AS=2.7e-12	PD=1.054e-05	PS=1.054e-05
+ NRD=0.0173	NRS=0.0173
MMM9@5	BIAS#89	BIAS#17	net123#64	GNDA	ne3	L=2e-06
+ W=1e-05
+ AD=2.7e-12	AS=2.7e-12	PD=1.054e-05	PS=1.054e-05
+ NRD=0.0173	NRS=0.0173
MMM9@1	BIAS#105	BIAS#20	net123#64	GNDA	ne3	L=2e-06
+ W=1e-05
+ AD=2.7e-12	AS=2.7e-12	PD=1.054e-05	PS=1.054e-05
+ NRD=0.0173	NRS=0.0173
MMM9@7	BIAS#105	BIAS#23	net123#85	GNDA	ne3	L=2e-06
+ W=1e-05
+ AD=2.7e-12	AS=4.8e-12	PD=1.054e-05	PS=2.096e-05
+ NRD=0.0173	NRS=0.0173
MMM10@3	GNDA#128	GNDA#11	GNDA#108	GNDA	ne3	L=5e-06
+ W=1e-05
+ AD=4.8e-12	AS=4.8e-12	PD=2.096e-05	PS=2.096e-05
+ NRD=0.0173	NRS=0.0173
MMM10	GNDA#133	GNDA#14	GNDA#113	GNDA	ne3	L=5e-06
+ W=1e-05
+ AD=4.8e-12	AS=4.8e-12	PD=2.096e-05	PS=2.096e-05
+ NRD=0.0173	NRS=0.0173
MMM10@1	GNDA#103	GNDA#8	GNDA#88	GNDA	ne3	L=5e-06
+ W=1e-05
+ AD=4.8e-12	AS=4.8e-12	PD=2.096e-05	PS=2.096e-05
+ NRD=0.0173	NRS=0.0173
MMM25@1	net5#36	net123#26	GNDA#93	GNDA	ne3	L=5e-06
+ W=1e-05
+ AD=4.8e-12	AS=4.8e-12	PD=2.096e-05	PS=2.096e-05
+ NRD=0.0173	NRS=0.0173
MMM25	net5#25	net123#20	GNDA#78	GNDA	ne3	L=5e-06
+ W=1e-05
+ AD=4.8e-12	AS=4.8e-12	PD=2.096e-05	PS=2.096e-05
+ NRD=0.0173	NRS=0.0173
MMM13@2	net123#115	net123#23	GNDA#83	GNDA	ne3	L=5e-06
+ W=1e-05
+ AD=4.8e-12	AS=4.8e-12	PD=2.096e-05	PS=2.096e-05
+ NRD=0.0173	NRS=0.0173
MMM13	net123#100	net123#14	GNDA#68	GNDA	ne3	L=5e-06
+ W=1e-05
+ AD=4.8e-12	AS=4.8e-12	PD=2.096e-05	PS=2.096e-05
+ NRD=0.0173	NRS=0.0173
MMM26	net7#105	net123#17	GNDA#73	GNDA	ne3	L=5e-06
+ W=1e-05
+ AD=4.8e-12	AS=4.8e-12	PD=2.096e-05	PS=2.096e-05
+ NRD=0.0173	NRS=0.0173
MMM25@3	net5#8	net123#8	GNDA#58	GNDA	ne3	L=5e-06
+ W=1e-05
+ AD=4.8e-12	AS=4.8e-12	PD=2.096e-05	PS=2.096e-05
+ NRD=0.0173	NRS=0.0173
MMM13@1	net123#79	net123#11	GNDA#63	GNDA	ne3	L=5e-06
+ W=1e-05
+ AD=4.8e-12	AS=4.8e-12	PD=2.096e-05	PS=2.096e-05
+ NRD=0.0173	NRS=0.0173
MMM13@3	net123#58	net123#2	GNDA#48	GNDA	ne3	L=5e-06
+ W=1e-05
+ AD=4.8e-12	AS=4.8e-12	PD=2.096e-05	PS=2.096e-05
+ NRD=0.0173	NRS=0.0173
MMM25@2	net5#3	net123#5	GNDA#53	GNDA	ne3	L=5e-06
+ W=1e-05
+ AD=4.8e-12	AS=4.8e-12	PD=2.096e-05	PS=2.096e-05
+ NRD=0.0173	NRS=0.0173
MMM10@4	GNDA#38	GNDA#2	GNDA#18	GNDA	ne3	L=5e-06
+ W=1e-05
+ AD=4.8e-12	AS=4.8e-12	PD=2.096e-05	PS=2.096e-05
+ NRD=0.0173	NRS=0.0173
MMM10@2	GNDA#43	GNDA#5	GNDA#23	GNDA	ne3	L=5e-06
+ W=1e-05
+ AD=4.8e-12	AS=4.8e-12	PD=2.096e-05	PS=2.096e-05
+ NRD=0.0173	NRS=0.0173
MMM2@5	net2#88	net4#86	VDDA#451	VDDA	pe3	L=2e-06
+ W=1e-05
+ AD=4.8e-12	AS=4.8e-12	PD=2.096e-05	PS=2.096e-05
+ NRD=0.0173	NRS=0.0173
MMM14@8	net8#106	net4#80	VDDA#435	VDDA	pe3	L=2e-06
+ W=1e-05
+ AD=4.8e-12	AS=4.8e-12	PD=2.096e-05	PS=2.096e-05
+ NRD=0.0173	NRS=0.0173
MMM4	net1#46	net4#74	VDDA#419	VDDA	pe3	L=2e-06
+ W=1e-05
+ AD=4.8e-12	AS=4.8e-12	PD=2.096e-05	PS=2.096e-05
+ NRD=0.0173	NRS=0.0173
MMM14@1	net8#100	net4#68	VDDA#403	VDDA	pe3	L=2e-06
+ W=1e-05
+ AD=4.8e-12	AS=4.8e-12	PD=2.096e-05	PS=2.096e-05
+ NRD=0.0173	NRS=0.0173
MMM14@10	net8#112	net4#89	VDDA#459	VDDA	pe3
+ L=2e-06	W=1e-05
+ AD=4.8e-12	AS=4.8e-12	PD=2.096e-05	PS=2.096e-05
+ NRD=0.0173	NRS=0.0173
MMM4@8	net1#58	net4#83	VDDA#443	VDDA	pe3	L=2e-06
+ W=1e-05
+ AD=4.8e-12	AS=4.8e-12	PD=2.096e-05	PS=2.096e-05
+ NRD=0.0173	NRS=0.0173
MMM2@8	net2#82	net4#77	VDDA#427	VDDA	pe3	L=2e-06
+ W=1e-05
+ AD=4.8e-12	AS=4.8e-12	PD=2.096e-05	PS=2.096e-05
+ NRD=0.0173	NRS=0.0173
MMM2	net2#76	net4#71	VDDA#411	VDDA	pe3	L=2e-06
+ W=1e-05
+ AD=4.8e-12	AS=4.8e-12	PD=2.096e-05	PS=2.096e-05
+ NRD=0.0173	NRS=0.0173
MMM2@6	net2#64	net4#62	VDDA#387	VDDA	pe3	L=2e-06
+ W=1e-05
+ AD=4.8e-12	AS=4.8e-12	PD=2.096e-05	PS=2.096e-05
+ NRD=0.0173	NRS=0.0173
MMM14@6	net8#88	net4#56	VDDA#371	VDDA	pe3	L=2e-06
+ W=1e-05
+ AD=4.8e-12	AS=4.8e-12	PD=2.096e-05	PS=2.096e-05
+ NRD=0.0173	NRS=0.0173
MMM4@2	net1#34	net4#50	VDDA#355	VDDA	pe3	L=2e-06
+ W=1e-05
+ AD=4.8e-12	AS=4.8e-12	PD=2.096e-05	PS=2.096e-05
+ NRD=0.0173	NRS=0.0173
MMM14@9	net8#76	net4#44	VDDA#339	VDDA	pe3	L=2e-06
+ W=1e-05
+ AD=4.8e-12	AS=4.8e-12	PD=2.096e-05	PS=2.096e-05
+ NRD=0.0173	NRS=0.0173
MMM14	net8#94	net4#65	VDDA#395	VDDA	pe3	L=2e-06
+ W=1e-05
+ AD=4.8e-12	AS=4.8e-12	PD=2.096e-05	PS=2.096e-05
+ NRD=0.0173	NRS=0.0173
MMM4@1	net1#40	net4#59	VDDA#379	VDDA	pe3	L=2e-06
+ W=1e-05
+ AD=4.8e-12	AS=4.8e-12	PD=2.096e-05	PS=2.096e-05
+ NRD=0.0173	NRS=0.0173
MMM14@11	net8#82	net4#53	VDDA#363	VDDA	pe3
+ L=2e-06	W=1e-05
+ AD=4.8e-12	AS=4.8e-12	PD=2.096e-05	PS=2.096e-05
+ NRD=0.0173	NRS=0.0173
MMM2@4	net2#40	net4#47	VDDA#347	VDDA	pe3	L=2e-06
+ W=1e-05
+ AD=4.8e-12	AS=4.8e-12	PD=2.096e-05	PS=2.096e-05
+ NRD=0.0173	NRS=0.0173
MMM2@1	net2#28	net4#38	VDDA#323	VDDA	pe3	L=2e-06
+ W=1e-05
+ AD=4.8e-12	AS=4.8e-12	PD=2.096e-05	PS=2.096e-05
+ NRD=0.0173	NRS=0.0173
MMM14@2	net8#64	net4#32	VDDA#307	VDDA	pe3	L=2e-06
+ W=1e-05
+ AD=4.8e-12	AS=4.8e-12	PD=2.096e-05	PS=2.096e-05
+ NRD=0.0173	NRS=0.0173
MMM4@7	net1#22	net4#26	VDDA#291	VDDA	pe3	L=2e-06
+ W=1e-05
+ AD=4.8e-12	AS=4.8e-12	PD=2.096e-05	PS=2.096e-05
+ NRD=0.0173	NRS=0.0173
MMM4@3	net1#16	net4#20	VDDA#275	VDDA	pe3	L=2e-06
+ W=1e-05
+ AD=4.8e-12	AS=4.8e-12	PD=2.096e-05	PS=2.096e-05
+ NRD=0.0173	NRS=0.0173
MMM14@3	net8#70	net4#41	VDDA#331	VDDA	pe3	L=2e-06
+ W=1e-05
+ AD=4.8e-12	AS=4.8e-12	PD=2.096e-05	PS=2.096e-05
+ NRD=0.0173	NRS=0.0173
MMM4@6	net1#28	net4#35	VDDA#315	VDDA	pe3	L=2e-06
+ W=1e-05
+ AD=4.8e-12	AS=4.8e-12	PD=2.096e-05	PS=2.096e-05
+ NRD=0.0173	NRS=0.0173
MMM14@7	net8#58	net4#29	VDDA#299	VDDA	pe3	L=2e-06
+ W=1e-05
+ AD=4.8e-12	AS=4.8e-12	PD=2.096e-05	PS=2.096e-05
+ NRD=0.0173	NRS=0.0173
MMM2@2	net2#16	net4#23	VDDA#283	VDDA	pe3	L=2e-06
+ W=1e-05
+ AD=4.8e-12	AS=4.8e-12	PD=2.096e-05	PS=2.096e-05
+ NRD=0.0173	NRS=0.0173
MMM2@3	net2#10	net4#14	VDDA#259	VDDA	pe3	L=2e-06
+ W=1e-05
+ AD=4.8e-12	AS=4.8e-12	PD=2.096e-05	PS=2.096e-05
+ NRD=0.0173	NRS=0.0173
MMM14@4	net8#28	net4#8	VDDA#243	VDDA	pe3	L=2e-06
+ W=1e-05
+ AD=4.8e-12	AS=4.8e-12	PD=2.096e-05	PS=2.096e-05
+ NRD=0.0173	NRS=0.0173
MMM4@9	net1#4	net4#2	VDDA#229	VDDA	pe3	L=2e-06	W=1e-05
+ AD=4.8e-12	AS=4.8e-12	PD=2.096e-05	PS=2.096e-05
+ NRD=0.0173	NRS=0.0173
MMM6	VDDA#217	VDDA#18	VDDA#193	VDDA	pe3	L=2e-06
+ W=1e-05
+ AD=4.8e-12	AS=4.8e-12	PD=2.096e-05	PS=2.096e-05
+ NRD=0.0173	NRS=0.0173
MMM14@5	net8#40	net4#17	VDDA#267	VDDA	pe3	L=2e-06
+ W=1e-05
+ AD=4.8e-12	AS=4.8e-12	PD=2.096e-05	PS=2.096e-05
+ NRD=0.0173	NRS=0.0173
MMM4@4	net1#10	net4#11	VDDA#251	VDDA	pe3	L=2e-06
+ W=1e-05
+ AD=4.8e-12	AS=4.8e-12	PD=2.096e-05	PS=2.096e-05
+ NRD=0.0173	NRS=0.0173
MMM2@9	net2#4	net4#5	VDDA#235	VDDA	pe3	L=2e-06	W=1e-05
+ AD=4.8e-12	AS=4.8e-12	PD=2.096e-05	PS=2.096e-05
+ NRD=0.0173	NRS=0.0173
MMM6@2	VDDA#223	VDDA#21	VDDA#199	VDDA	pe3	L=2e-06
+ W=1e-05
+ AD=4.8e-12	AS=4.8e-12	PD=2.096e-05	PS=2.096e-05
+ NRD=0.0173	NRS=0.0173
MMM5	VDDA#159	VDDA#12	VDDA#144	VDDA	pe3	L=1e-05
+ W=1e-05
+ AD=4.8e-12	AS=4.8e-12	PD=2.096e-05	PS=2.096e-05
+ NRD=0.0173	NRS=0.0173
MMM23@4	net6#245	net6#60	VDDA#134	VDDA	pe3	L=1e-05
+ W=1e-05
+ AD=4.8e-12	AS=4.8e-12	PD=2.096e-05	PS=2.096e-05
+ NRD=0.0173	NRS=0.0173
MMM5@3	VDDA#167	VDDA#16	VDDA#149	VDDA	pe3	L=1e-05
+ W=1e-05
+ AD=4.8e-12	AS=4.8e-12	PD=2.096e-05	PS=2.096e-05
+ NRD=0.0173	NRS=0.0173
MMM22@6	net4#190	net6#64	VDDA#139	VDDA	pe3	L=1e-05
+ W=1e-05
+ AD=4.8e-12	AS=4.8e-12	PD=2.096e-05	PS=2.096e-05
+ NRD=0.0173	NRS=0.0173
MMM22@1	net4#185	net6#52	VDDA#124	VDDA	pe3	L=1e-05
+ W=1e-05
+ AD=4.8e-12	AS=4.8e-12	PD=2.096e-05	PS=2.096e-05
+ NRD=0.0173	NRS=0.0173
MMM23@6	net6#213	net6#44	VDDA#114	VDDA	pe3	L=1e-05
+ W=1e-05
+ AD=4.8e-12	AS=4.8e-12	PD=2.096e-05	PS=2.096e-05
+ NRD=0.0173	NRS=0.0173
MMM23@7	net6#229	net6#56	VDDA#129	VDDA	pe3	L=1e-05
+ W=1e-05
+ AD=4.8e-12	AS=4.8e-12	PD=2.096e-05	PS=2.096e-05
+ NRD=0.0173	NRS=0.0173
MMM22@4	net4#180	net6#48	VDDA#119	VDDA	pe3	L=1e-05
+ W=1e-05
+ AD=4.8e-12	AS=4.8e-12	PD=2.096e-05	PS=2.096e-05
+ NRD=0.0173	NRS=0.0173
MMM22@3	net4#175	net6#36	VDDA#96	VDDA	pe3	L=1e-05
+ W=1e-05
+ AD=4.8e-12	AS=4.8e-12	PD=2.096e-05	PS=2.096e-05
+ NRD=0.0173	NRS=0.0173
MMM23	net6#181	net6#28	VDDA#86	VDDA	pe3	L=1e-05
+ W=1e-05
+ AD=4.8e-12	AS=4.8e-12	PD=2.096e-05	PS=2.096e-05
+ NRD=0.0173	NRS=0.0173
MMM23@2	net6#197	net6#40	VDDA#101	VDDA	pe3	L=1e-05
+ W=1e-05
+ AD=4.8e-12	AS=4.8e-12	PD=2.096e-05	PS=2.096e-05
+ NRD=0.0173	NRS=0.0173
MMM22@7	net4#170	net6#32	VDDA#91	VDDA	pe3	L=1e-05
+ W=1e-05
+ AD=4.8e-12	AS=4.8e-12	PD=2.096e-05	PS=2.096e-05
+ NRD=0.0173	NRS=0.0173
MMM22	net4#153	net6#20	VDDA#76	VDDA	pe3	L=1e-05
+ W=1e-05
+ AD=4.8e-12	AS=4.8e-12	PD=2.096e-05	PS=2.096e-05
+ NRD=0.0173	NRS=0.0173
MMM23@3	net6#125	net6#12	VDDA#66	VDDA	pe3	L=1e-05
+ W=1e-05
+ AD=4.8e-12	AS=4.8e-12	PD=2.096e-05	PS=2.096e-05
+ NRD=0.0173	NRS=0.0173
MMM23@1	net6#153	net6#24	VDDA#81	VDDA	pe3	L=1e-05
+ W=1e-05
+ AD=4.8e-12	AS=4.8e-12	PD=2.096e-05	PS=2.096e-05
+ NRD=0.0173	NRS=0.0173
MMM22@2	net4#136	net6#16	VDDA#71	VDDA	pe3	L=1e-05
+ W=1e-05
+ AD=4.8e-12	AS=4.8e-12	PD=2.096e-05	PS=2.096e-05
+ NRD=0.0173	NRS=0.0173
MMM22@5	net4#119	net6#4	VDDA#56	VDDA	pe3	L=1e-05
+ W=1e-05
+ AD=4.8e-12	AS=4.8e-12	PD=2.096e-05	PS=2.096e-05
+ NRD=0.0173	NRS=0.0173
MMM5@1	VDDA#53	VDDA#4	VDDA#41	VDDA	pe3	L=1e-05
+ W=1e-05
+ AD=4.8e-12	AS=4.8e-12	PD=2.096e-05	PS=2.096e-05
+ NRD=0.0173	NRS=0.0173
MMM23@5	net6#96	net6#8	VDDA#60	VDDA	pe3	L=1e-05
+ W=1e-05
+ AD=4.8e-12	AS=4.8e-12	PD=2.096e-05	PS=2.096e-05
+ NRD=0.0173	NRS=0.0173
MMM5@2	VDDA#47	VDDA#8	VDDA#31	VDDA	pe3	L=1e-05
+ W=1e-05
+ AD=4.8e-12	AS=4.8e-12	PD=2.096e-05	PS=2.096e-05
+ NRD=0.0173	NRS=0.0173
MMM6@3	VDDA#508	VDDA#24	VDDA#495	VDDA	pe3	L=2e-06
+ W=1e-05
+ AD=4.8e-12	AS=4.8e-12	PD=2.096e-05	PS=2.096e-05
+ NRD=0.0173	NRS=0.0173
MMM4@5	net1#76	net4#92	VDDA#467	VDDA	pe3	L=2e-06
+ W=1e-05
+ AD=4.8e-12	AS=4.8e-12	PD=2.096e-05	PS=2.096e-05
+ NRD=0.0173	NRS=0.0173
MMM6@1	VDDA#514	VDDA#27	VDDA#483	VDDA	pe3	L=2e-06
+ W=1e-05
+ AD=4.8e-12	AS=4.8e-12	PD=2.096e-05	PS=2.096e-05
+ NRD=0.0173	NRS=0.0173
MMM2@7	net2#94	net4#95	VDDA#475	VDDA	pe3	L=2e-06
+ W=1e-05
+ AD=4.8e-12	AS=4.8e-12	PD=2.096e-05	PS=2.096e-05
+ NRD=0.0173	NRS=0.0173
MMM0@1	net7#117	net7#2	net102#28	VDDA	pe3	L=2e-06
+ W=1e-05
+ AD=2.7e-12	AS=4.8e-12	PD=1.054e-05	PS=2.096e-05
+ NRD=0.0173	NRS=0.0173
MMM0	net7#117	net7#5	net102#34	VDDA	pe3	L=2e-06
+ W=1e-05
+ AD=2.7e-12	AS=4.8e-12	PD=1.054e-05	PS=2.096e-05
+ NRD=0.0173	NRS=0.0173
MMM28@1	net102#16	net102#2	VDDA#181	VDDA	pe3	L=2e-06
+ W=1e-05
+ AD=2.7e-12	AS=4.8e-12	PD=1.054e-05	PS=2.096e-05
+ NRD=0.0173	NRS=0.0173
MMM28	net102#16	net102#5	VDDA#187	VDDA	pe3	L=2e-06
+ W=1e-05
+ AD=2.7e-12	AS=4.8e-12	PD=1.054e-05	PS=2.096e-05
+ NRD=0.0173	NRS=0.0173
MMM21@7	RES_BIAS#107	net7#8	net8#4	VDDA	pe3	L=1e-06	W=1e-05
+ AD=2.7e-12	AS=4.8e-12	PD=1.054e-05	PS=2.096e-05
+ NRD=0.0173	NRS=0.0173
MMM21	RES_BIAS#107	net7#11	net8#10	VDDA	pe3	L=1e-06
+ W=1e-05
+ AD=2.7e-12	AS=2.7e-12	PD=1.054e-05	PS=1.054e-05
+ NRD=0.0173	NRS=0.0173
MMM21@5	RES_BIAS#113	net7#14	net8#10	VDDA	pe3	L=1e-06
+ W=1e-05
+ AD=2.7e-12	AS=2.7e-12	PD=1.054e-05	PS=1.054e-05
+ NRD=0.0173	NRS=0.0173
MMM21@4	RES_BIAS#113	net7#17	net8#16	VDDA	pe3	L=1e-06
+ W=1e-05
+ AD=2.7e-12	AS=2.7e-12	PD=1.054e-05	PS=1.054e-05
+ NRD=0.0173	NRS=0.0173
MMM21@10	RES_BIAS#119	net7#20	net8#16	VDDA	pe3
+ L=1e-06	W=1e-05
+ AD=2.7e-12	AS=2.7e-12	PD=1.054e-05	PS=1.054e-05
+ NRD=0.0173	NRS=0.0173
MMM21@6	RES_BIAS#119	net7#23	net8#22	VDDA	pe3	L=1e-06
+ W=1e-05
+ AD=2.7e-12	AS=2.7e-12	PD=1.054e-05	PS=1.054e-05
+ NRD=0.0173	NRS=0.0173
MMM21@9	RES_BIAS#125	net7#26	net8#22	VDDA	pe3	L=1e-06
+ W=1e-05
+ AD=2.7e-12	AS=2.7e-12	PD=1.054e-05	PS=1.054e-05
+ NRD=0.0173	NRS=0.0173
MMM21@11	RES_BIAS#125	net7#29	net8#34	VDDA	pe3
+ L=1e-06	W=1e-05
+ AD=2.7e-12	AS=2.7e-12	PD=1.054e-05	PS=1.054e-05
+ NRD=0.0173	NRS=0.0173
MMM21@2	RES_BIAS#131	net7#32	net8#34	VDDA	pe3	L=1e-06
+ W=1e-05
+ AD=2.7e-12	AS=2.7e-12	PD=1.054e-05	PS=1.054e-05
+ NRD=0.0173	NRS=0.0173
MMM21@3	RES_BIAS#131	net7#35	net8#46	VDDA	pe3	L=1e-06
+ W=1e-05
+ AD=2.7e-12	AS=2.7e-12	PD=1.054e-05	PS=1.054e-05
+ NRD=0.0173	NRS=0.0173
MMM21@1	RES_BIAS#137	net7#38	net8#46	VDDA	pe3	L=1e-06
+ W=1e-05
+ AD=2.7e-12	AS=2.7e-12	PD=1.054e-05	PS=1.054e-05
+ NRD=0.0173	NRS=0.0173
MMM21@8	RES_BIAS#137	net7#41	net8#52	VDDA	pe3	L=1e-06
+ W=1e-05
+ AD=2.7e-12	AS=4.8e-12	PD=1.054e-05	PS=2.096e-05
+ NRD=0.0173	NRS=0.0173
MMM3@5	OUT2#40	net7#74	net1#52	VDDA	pe3	L=1e-06
+ W=1e-05
+ AD=2.7e-12	AS=4.8e-12	PD=1.054e-05	PS=2.096e-05
+ NRD=0.0173	NRS=0.0173
MMM3@7	OUT2#40	net7#77	net1#64	VDDA	pe3	L=1e-06
+ W=1e-05
+ AD=2.7e-12	AS=2.7e-12	PD=1.054e-05	PS=1.054e-05
+ NRD=0.0173	NRS=0.0173
MMM3@1	OUT2#46	net7#80	net1#64	VDDA	pe3	L=1e-06
+ W=1e-05
+ AD=2.7e-12	AS=2.7e-12	PD=1.054e-05	PS=1.054e-05
+ NRD=0.0173	NRS=0.0173
MMM3@4	OUT2#46	net7#83	net1#70	VDDA	pe3	L=1e-06
+ W=1e-05
+ AD=2.7e-12	AS=2.7e-12	PD=1.054e-05	PS=1.054e-05
+ NRD=0.0173	NRS=0.0173
MMM3@2	OUT2#52	net7#86	net1#70	VDDA	pe3	L=1e-06
+ W=1e-05
+ AD=2.7e-12	AS=2.7e-12	PD=1.054e-05	PS=1.054e-05
+ NRD=0.0173	NRS=0.0173
MMM3@8	OUT2#52	net7#89	net1#82	VDDA	pe3	L=1e-06
+ W=1e-05
+ AD=2.7e-12	AS=2.7e-12	PD=1.054e-05	PS=1.054e-05
+ NRD=0.0173	NRS=0.0173
MMM3@3	OUT2#58	net7#92	net1#82	VDDA	pe3	L=1e-06
+ W=1e-05
+ AD=2.7e-12	AS=2.7e-12	PD=1.054e-05	PS=1.054e-05
+ NRD=0.0173	NRS=0.0173
MMM3	OUT2#58	net7#95	net1#88	VDDA	pe3	L=1e-06
+ W=1e-05
+ AD=2.7e-12	AS=2.7e-12	PD=1.054e-05	PS=1.054e-05
+ NRD=0.0173	NRS=0.0173
MMM3@9	OUT2#64	net7#98	net1#88	VDDA	pe3	L=1e-06
+ W=1e-05
+ AD=2.7e-12	AS=2.7e-12	PD=1.054e-05	PS=1.054e-05
+ NRD=0.0173	NRS=0.0173
MMM3@6	OUT2#64	net7#101	net1#94	VDDA	pe3	L=1e-06
+ W=1e-05
+ AD=2.7e-12	AS=4.8e-12	PD=1.054e-05	PS=2.096e-05
+ NRD=0.0173	NRS=0.0173
MMM1@9	OUT1#40	net7#44	net2#22	VDDA	pe3	L=1e-06
+ W=1e-05
+ AD=2.7e-12	AS=4.8e-12	PD=1.054e-05	PS=2.096e-05
+ NRD=0.0173	NRS=0.0173
MMM1@2	OUT1#40	net7#47	net2#34	VDDA	pe3	L=1e-06
+ W=1e-05
+ AD=2.7e-12	AS=2.7e-12	PD=1.054e-05	PS=1.054e-05
+ NRD=0.0173	NRS=0.0173
MMM1@7	OUT1#46	net7#50	net2#34	VDDA	pe3	L=1e-06
+ W=1e-05
+ AD=2.7e-12	AS=2.7e-12	PD=1.054e-05	PS=1.054e-05
+ NRD=0.0173	NRS=0.0173
MMM1@4	OUT1#46	net7#53	net2#46	VDDA	pe3	L=1e-06
+ W=1e-05
+ AD=2.7e-12	AS=2.7e-12	PD=1.054e-05	PS=1.054e-05
+ NRD=0.0173	NRS=0.0173
MMM1@6	OUT1#52	net7#56	net2#46	VDDA	pe3	L=1e-06
+ W=1e-05
+ AD=2.7e-12	AS=2.7e-12	PD=1.054e-05	PS=1.054e-05
+ NRD=0.0173	NRS=0.0173
MMM1	OUT1#52	net7#59	net2#52	VDDA	pe3	L=1e-06
+ W=1e-05
+ AD=2.7e-12	AS=2.7e-12	PD=1.054e-05	PS=1.054e-05
+ NRD=0.0173	NRS=0.0173
MMM1@8	OUT1#58	net7#62	net2#52	VDDA	pe3	L=1e-06
+ W=1e-05
+ AD=2.7e-12	AS=2.7e-12	PD=1.054e-05	PS=1.054e-05
+ NRD=0.0173	NRS=0.0173
MMM1@5	OUT1#58	net7#65	net2#58	VDDA	pe3	L=1e-06
+ W=1e-05
+ AD=2.7e-12	AS=2.7e-12	PD=1.054e-05	PS=1.054e-05
+ NRD=0.0173	NRS=0.0173
MMM1@1	OUT1#64	net7#68	net2#58	VDDA	pe3	L=1e-06
+ W=1e-05
+ AD=2.7e-12	AS=2.7e-12	PD=1.054e-05	PS=1.054e-05
+ NRD=0.0173	NRS=0.0173
MMM1@3	OUT1#64	net7#71	net2#70	VDDA	pe3	L=1e-06
+ W=1e-05
+ AD=2.7e-12	AS=4.8e-12	PD=1.054e-05	PS=2.096e-05
+ NRD=0.0173	NRS=0.0173
*
*
*       CANONICAL RESISTOR AND CAP/DIODE CARDS
*
RRR0	net3	RES_BIAS#43	rpp1k1_3 	L=0.0005141	W=4e-06
+ $SUB=GNDA 
*
*       PARASITIC RESISTOR AND CAP/DIODE CARDS
*
Rb93	net4#539	net4#633	0.569273	$METTP	$L=1.628e-05
+ $W=8.8e-07	$X=194.865 $Y=117.945
Rb94	net4#633	net4#634	1.413494	$METTP	$L=4.0245e-05
+ $W=8.8e-07	$X=174.7425 $Y=134.225
Rb95	net4#634	net4#635	1.647932	$METTP	$L=4.69e-05
+ $W=8.8e-07	$X=154.62 $Y=134.225
Rb96	net4#635	net4#468	0.635335	$METTP	$L=1.80955e-05
+ $W=8.8e-07	$X=145.5725 $Y=181.125
Rb177	net4#539	net4#717	1.108955	$METTP	$L=3.16e-05
+ $W=8.8e-07	$X=194.865 $Y=117.945
Rb178	net4#717	net4#718	1.108955	$METTP	$L=3.16e-05
+ $W=8.8e-07	$X=194.865 $Y=86.345
Rb179	net4#718	net4#719	1.108955	$METTP	$L=3.16e-05
+ $W=8.8e-07	$X=194.865 $Y=54.745
Rb180	net4#719	net4#720	0.543917	$METTP	$L=1.55002e-05
+ $W=8.8e-07	$X=194.865 $Y=23.145
Rb182	net4#633	net4#722	1.159330	$METTP	$L=3.303e-05
+ $W=8.8e-07	$X=211.38 $Y=134.225
Rb183	net4#722	net4#723	0.569273	$METTP	$L=1.628e-05
+ $W=8.8e-07	$X=227.895 $Y=134.225
Rb184	net4#723	net4#724	1.108955	$METTP	$L=3.16e-05
+ $W=8.8e-07	$X=227.895 $Y=117.945
Rb185	net4#724	net4#725	1.108955	$METTP	$L=3.16e-05
+ $W=8.8e-07	$X=227.895 $Y=86.345
Rb186	net4#725	net4#726	1.108955	$METTP	$L=3.16e-05
+ $W=8.8e-07	$X=227.895 $Y=54.745
Rb187	net4#726	net4#727	0.543917	$METTP	$L=1.55002e-05
+ $W=8.8e-07	$X=227.895 $Y=23.145
Rc1	net6#333	net6#349	0.539034	$MET4	$L=1.1295e-05
+ $W=1.46e-06	$X=7.62 $Y=158.17
Rc2	net6#349	net6#359	1.783096	$MET4	$L=3.593e-05
+ $W=1.46e-06	$X=7.62 $Y=147.58
Rc4	net4#506	net4#496	1.783096	$MET4	$L=3.593e-05
+ $W=1.46e-06	$X=9.5 $Y=114.18
Rc6	COM	COM#652	1.512438	$MET4	$L=2.984e-05
+ $W=1.46e-06	$X=11.38 $Y=145.8
Rc9	COM	COM#652	1.512438	$MET4	$L=2.984e-05
+ $W=1.46e-06	$X=68.4 $Y=145.8
Rc10	COM#652	COM#611	0.603918	$MET4	$L=1.19152e-05
+ $W=1.46e-06	$X=68.655 $Y=115.96
Rc14	net6#340	net6#350	1.783096	$MET4	$L=3.593e-05
+ $W=1.46e-06	$X=70.28 $Y=147.58
Rc17	net4#505	net4#508	1.783096	$MET4	$L=3.518e-05
+ $W=1.46e-06	$X=72.16 $Y=149.36
Rc22	net3#14	net3#15	1.193269	$MET4	$L=1.55002e-05
+ $W=9.6e-07	$X=229.175 $Y=7.645
Rc23	net3#15	net3#16	2.432750	$MET4	$L=3.16e-05
+ $W=9.6e-07	$X=229.175 $Y=23.145
Rc24	net3#16	net3#17	2.432750	$MET4	$L=3.16e-05
+ $W=9.6e-07	$X=229.175 $Y=54.745
Rc25	net3#17	net3#18	2.432750	$MET4	$L=3.16e-05
+ $W=9.6e-07	$X=229.175 $Y=86.345
Rc26	net3#18	net3#19	1.350500	$MET4	$L=1.756e-05
+ $W=9.6e-07	$X=229.175 $Y=117.945
Rc27	net3#19	net3#20	2.740313	$MET4	$L=3.559e-05
+ $W=9.6e-07	$X=211.38 $Y=135.505
Rc28	net3#20	net3#21	7.040020	$MET4	$L=9.137e-05
+ $W=9.6e-07	$X=147.9 $Y=135.505
Rc29	net3#21	net3#22	1.244125	$MET4	$L=1.618e-05
+ $W=9.6e-07	$X=102.215 $Y=135.505
Rc30	net3#22	net3#3	1.493539	$MET4	$L=1.94153e-05
+ $W=9.6e-07	$X=92.5075 $Y=119.325
Rc40	net3#20	net3#33	1.350500	$MET4	$L=1.756e-05
+ $W=9.6e-07	$X=193.585 $Y=135.505
Rc41	net3#33	net3#34	2.432750	$MET4	$L=3.16e-05
+ $W=9.6e-07	$X=193.585 $Y=117.945
Rc42	net3#34	net3#35	2.432750	$MET4	$L=3.16e-05
+ $W=9.6e-07	$X=193.585 $Y=86.345
Rc43	net3#35	net3#36	2.432750	$MET4	$L=3.16e-05
+ $W=9.6e-07	$X=193.585 $Y=54.745
Rc44	net3#36	net3#37	1.193269	$MET4	$L=1.55002e-05
+ $W=9.6e-07	$X=193.585 $Y=23.145
Rd3	net6#333	net6#327	0.896110	$MET3	$L=1.768e-05
+ $W=1.46e-06	$X=7.19 $Y=166.7
Rd4	net6#327	net6#338	0.870767	$MET3	$L=1.718e-05
+ $W=1.46e-06	$X=7.19 $Y=184.38
Rd7	net123#150	net123#152	0.815521	$MET3	$L=1.609e-05
+ $W=1.46e-06	$X=13.87 $Y=9.2
Rd8	net123#152	net123#153	0.809945	$MET3	$L=1.598e-05
+ $W=1.46e-06	$X=13.87 $Y=25.29
Rd9	net123#153	net123#123	0.599869	$MET3	$L=1.18553e-05
+ $W=1.46e-06	$X=13.87 $Y=41.27
Rd13	GNDA#276	GNDA	0.609033	$MET3	$L=1.609e-05
+ $W=1.955e-06	$X=15.9 $Y=29.13
Rd20	GNDA#283	GNDA	0.607480	$MET3	$L=1.609e-05
+ $W=1.96e-06	$X=62.5 $Y=29.13
Rd24	net5#70	net5#71	0.822616	$MET3	$L=1.623e-05
+ $W=1.46e-06	$X=66.31 $Y=34.685
Rd25	net5#71	net5#72	0.815521	$MET3	$L=1.609e-05
+ $W=1.46e-06	$X=66.31 $Y=26.57
Rd27	COM#611	COM#575	2.590495	$MET3	$L=5.29198e-05
+ $W=1.46e-06	$X=69.42 $Y=102.255
Rd37	net4#496	net4#505	0.623425	$MET3	$L=1.305e-05
+ $W=1.46e-06	$X=66.01 $Y=149.36
Rd46	net6#340	net6#349	0.752164	$MET3	$L=1.559e-05
+ $W=1.46e-06	$X=15.04 $Y=147.58
Rd84	VREF#169	VREF#170	1.706826	$MET3	$L=1.061e-05
+ $W=4.6e-07	$X=67.605 $Y=131.27
Rd85	VREF#170	VREF#171	0.596826	$MET3	$L=3.71e-06
+ $W=4.6e-07	$X=60.445 $Y=131.27
Rd87	VREF#171	VREF#173	0.596826	$MET3	$L=3.71e-06
+ $W=4.6e-07	$X=53.645 $Y=131.27
Rd89	VREF#173	VREF#175	0.596826	$MET3	$L=3.71e-06
+ $W=4.6e-07	$X=46.845 $Y=131.27
Rd91	VREF#175	VREF#177	0.596826	$MET3	$L=3.71e-06
+ $W=4.6e-07	$X=40.045 $Y=131.27
Rd93	VREF#177	VREF#179	0.596826	$MET3	$L=3.71e-06
+ $W=4.6e-07	$X=33.245 $Y=131.27
Rd95	VREF#179	VREF#181	0.596826	$MET3	$L=3.71e-06
+ $W=4.6e-07	$X=26.445 $Y=131.27
Rd97	VREF#181	VREF#183	0.596826	$MET3	$L=3.71e-06
+ $W=4.6e-07	$X=19.645 $Y=131.27
Rd98	VREF#183	VREF	1.716478	$MET3	$L=1.067e-05
+ $W=4.6e-07	$X=12.455 $Y=131.27
Rd138	net4#506	net4#508	0.656877	$MET3	$L=1.296e-05
+ $W=1.46e-06	$X=15.98 $Y=114.18
Rd147	net6#350	net6#352	0.528137	$MET3	$L=1.042e-05
+ $W=1.46e-06	$X=65.07 $Y=112.4
Rd154	net6#352	net6#359	0.579836	$MET3	$L=1.219e-05
+ $W=1.46e-06	$X=13.34 $Y=112.4
Rd159	RES_BIAS	RES_BIAS#225	1.716478	$MET3	$L=1.067e-05
+ $W=4.6e-07	$X=12.455 $Y=130.49
Rd161	RES_BIAS#225	RES_BIAS#227	0.596826	$MET3	$L=3.71e-06
+ $W=4.6e-07	$X=22.735 $Y=130.49
Rd163	RES_BIAS#227	RES_BIAS#229	0.596826	$MET3	$L=3.71e-06
+ $W=4.6e-07	$X=29.535 $Y=130.49
Rd165	RES_BIAS#229	RES_BIAS#231	0.596826	$MET3	$L=3.71e-06
+ $W=4.6e-07	$X=36.335 $Y=130.49
Rd167	RES_BIAS#231	RES_BIAS#233	0.596826	$MET3	$L=3.71e-06
+ $W=4.6e-07	$X=43.135 $Y=130.49
Rd169	RES_BIAS#233	RES_BIAS#235	0.596826	$MET3	$L=3.71e-06
+ $W=4.6e-07	$X=49.935 $Y=130.49
Rd171	RES_BIAS#235	RES_BIAS#237	0.596826	$MET3	$L=3.71e-06
+ $W=4.6e-07	$X=56.735 $Y=130.49
Rd173	RES_BIAS#237	RES_BIAS#239	2.959233	$MET3	$L=1.84153e-05
+ $W=4.6e-07	$X=70.8875 $Y=130.49
Rd174	RES_BIAS#239	RES_BIAS#101	2.933456	$MET3	$L=1.8275e-05
+ $W=4.6e-07	$X=80.095 $Y=130.49
Rd179	VDDA#577	VDDA#558	0.667510	$MET3	$L=1.768e-05
+ $W=1.96e-06	$X=9.22 $Y=170.26
Rd180	VDDA#558	VDDA#656	0.651567	$MET3	$L=1.72803e-05
+ $W=1.96e-06	$X=9.2225 $Y=187.94
Rd181	VDDA#656	VDDA	1.909085	$MET3	$L=5.0585e-05
+ $W=1.96e-06	$X=34.5175 $Y=205.22
Rd185	VDDA	VDDA#661	1.910047	$MET3	$L=5.06105e-05
+ $W=1.96e-06	$X=100.655 $Y=205.22
Rd186	VDDA#661	VDDA#546	0.651662	$MET3	$L=1.72803e-05
+ $W=1.96e-06	$X=125.96 $Y=205.22
Rd187	VDDA#546	VDDA#564	0.667510	$MET3	$L=1.768e-05
+ $W=1.96e-06	$X=125.96 $Y=187.94
Rd189	net4#516	net4#468	0.793219	$MET3	$L=1.565e-05
+ $W=1.46e-06	$X=127.99 $Y=193.985
Rd190	net4#468	net4#446	0.896110	$MET3	$L=1.768e-05
+ $W=1.46e-06	$X=127.99 $Y=186.16
Rd192	net4#446	net4#505	2.827459	$MET3	$L=5.5825e-05
+ $W=1.46e-06	$X=100.0775 $Y=160.915
Rd199	net7#368	net7#370	0.815521	$MET3	$L=1.609e-05
+ $W=1.46e-06	$X=64.53 $Y=11.76
Rd200	net7#370	net7#371	0.923745	$MET3	$L=1.82453e-05
+ $W=1.46e-06	$X=64.53 $Y=27.85
Rd202	net7#371	net7#373	2.996747	$MET3	$L=5.9165e-05
+ $W=1.46e-06	$X=72.79 $Y=46.095
Rd203	net7#373	net7#374	4.053527	$MET3	$L=8.0015e-05
+ $W=1.46e-06	$X=112.7975 $Y=105.26
Rd204	net7#374	net7#375	2.868755	$MET3	$L=5.66198e-05
+ $W=1.46e-06	$X=152.805 $Y=105.26
Rd205	net7#375	net7#329	1.244062	$MET3	$L=2.5205e-05
+ $W=1.46e-06	$X=152.805 $Y=161.88
Rd206	net8#141	net8#132	0.872288	$MET3	$L=1.721e-05
+ $W=1.46e-06	$X=160.855 $Y=200.72
Rd207	net8#132	net8#140	1.014712	$MET3	$L=2.002e-05
+ $W=1.46e-06	$X=160.855 $Y=192.115
Rd208	net8#140	net8#115	1.199953	$MET3	$L=2.36947e-05
+ $W=1.46e-06	$X=160.855 $Y=172.095
Rd211	VDDA#517	VDDA#580	0.554245	$MET3	$L=1.468e-05
+ $W=1.96e-06	$X=162.885 $Y=208.575
Rd212	VDDA#580	VDDA#605	0.755857	$MET3	$L=2.002e-05
+ $W=1.96e-06	$X=162.885 $Y=193.895
Rd218	OUT2#67	OUT2	1.687821	$MET3	$L=3.33203e-05
+ $W=1.46e-06	$X=203.96 $Y=141.54
Rd224	VDDA#629	VDDA#580	0.554245	$MET3	$L=1.468e-05
+ $W=1.96e-06	$X=225.545 $Y=208.575
Rd225	VDDA#580	VDDA#605	0.755857	$MET3	$L=2.002e-05
+ $W=1.96e-06	$X=225.545 $Y=193.895
Rd227	net2#122	net2#106	0.962507	$MET3	$L=1.899e-05
+ $W=1.46e-06	$X=227.575 $Y=199.83
Rd228	net2#106	net2#113	1.014712	$MET3	$L=2.002e-05
+ $W=1.46e-06	$X=227.575 $Y=190.335
Rd230	net2#113	net2#126	1.020795	$MET3	$L=2.018e-05
+ $W=1.46e-06	$X=217.485 $Y=165.485
Rd231	net2#126	net2#97	0.863925	$MET3	$L=1.7085e-05
+ $W=1.46e-06	$X=207.395 $Y=165.485
Rd233	net1#120	net1#111	1.052726	$MET3	$L=2.077e-05
+ $W=1.46e-06	$X=229.355 $Y=198.94
Rd234	net1#111	net1#119	1.014712	$MET3	$L=2.002e-05
+ $W=1.46e-06	$X=229.355 $Y=188.555
Rd235	net1#119	net1#97	1.019515	$MET3	$L=2.01348e-05
+ $W=1.46e-06	$X=229.355 $Y=168.535
Re11	COM#303	COM#13	1.329479	$MET2	$L=5.40975e-06
+ $W=3e-07	$X=13.12 $Y=132.87
Re12	COM#13	COM#307	1.854933	$MET2	$L=7.52e-06
+ $W=3e-07	$X=13.12 $Y=142.04
Re16	COM#309	COM#17	1.329588	$MET2	$L=5.41025e-06
+ $W=3e-07	$X=13.12 $Y=128.89
Re17	COM#17	COM#313	1.854933	$MET2	$L=7.52e-06
+ $W=3e-07	$X=13.12 $Y=119.72
Re20	COM#315	COM#29	1.854933	$MET2	$L=7.52e-06
+ $W=3e-07	$X=15.66 $Y=145.8
Re21	COM#29	COM#318	1.223467	$MET2	$L=4.96e-06
+ $W=3e-07	$X=15.66 $Y=135.8
Re22	COM#319	COM#33	1.223467	$MET2	$L=4.96e-06
+ $W=3e-07	$X=15.66 $Y=128.43
Re23	COM#33	COM#321	1.854933	$MET2	$L=7.52e-06
+ $W=3e-07	$X=15.66 $Y=119.72
Re26	COM#323	COM#43	1.854933	$MET2	$L=7.52e-06
+ $W=3e-07	$X=16.52 $Y=145.8
Re27	COM#43	COM#326	1.223467	$MET2	$L=4.96e-06
+ $W=3e-07	$X=16.52 $Y=135.8
Re28	COM#327	COM#47	1.223467	$MET2	$L=4.96e-06
+ $W=3e-07	$X=16.52 $Y=128.43
Re29	COM#47	COM#329	1.854933	$MET2	$L=7.52e-06
+ $W=3e-07	$X=16.52 $Y=119.72
Re51	net4#385	net4#97	2.733067	$MET2	$L=1.108e-05
+ $W=3e-07	$X=19.06 $Y=149.36
Re52	net4#97	net4#388	1.223467	$MET2	$L=4.96e-06
+ $W=3e-07	$X=19.06 $Y=135.8
Re53	net6#248	net6#65	1.223467	$MET2	$L=4.96e-06
+ $W=3e-07	$X=19.06 $Y=128.43
Re54	net6#65	net6#250	2.733067	$MET2	$L=1.108e-05
+ $W=3e-07	$X=19.06 $Y=123.48
Re57	COM#341	COM#57	1.854933	$MET2	$L=7.52e-06
+ $W=3e-07	$X=19.92 $Y=145.8
Re58	COM#57	COM#344	1.223467	$MET2	$L=4.96e-06
+ $W=3e-07	$X=19.92 $Y=135.8
Re59	COM#345	COM#61	1.223467	$MET2	$L=4.96e-06
+ $W=3e-07	$X=19.92 $Y=128.43
Re60	COM#61	COM#347	1.854933	$MET2	$L=7.52e-06
+ $W=3e-07	$X=19.92 $Y=119.72
Re71	VREF#104	VREF#106	0.582079	$MET2	$L=2.37975e-06
+ $W=3e-07	$X=21.5 $Y=131.27
Re75	RES_BIAS#145	RES_BIAS#147	0.582188	$MET2	$L=2.38025e-06
+ $W=3e-07	$X=20.88 $Y=130.49
Re79	net6#252	net6#69	2.294000	$MET2	$L=9.3e-06
+ $W=3e-07	$X=22.46 $Y=147.58
Re80	net6#69	net6#255	1.223467	$MET2	$L=4.96e-06
+ $W=3e-07	$X=22.46 $Y=135.8
Re81	net4#389	net4#101	1.223467	$MET2	$L=4.96e-06
+ $W=3e-07	$X=22.46 $Y=128.43
Re82	net4#101	net4#391	2.294000	$MET2	$L=9.3e-06
+ $W=3e-07	$X=22.46 $Y=118.83
Re85	COM#359	COM#71	1.854933	$MET2	$L=7.52e-06
+ $W=3e-07	$X=23.32 $Y=145.8
Re86	COM#71	COM#362	1.223467	$MET2	$L=4.96e-06
+ $W=3e-07	$X=23.32 $Y=135.8
Re87	COM#363	COM#75	1.223467	$MET2	$L=4.96e-06
+ $W=3e-07	$X=23.32 $Y=128.43
Re88	COM#75	COM#365	1.854933	$MET2	$L=7.52e-06
+ $W=3e-07	$X=23.32 $Y=119.72
Re107	net4#393	net4#105	2.733067	$MET2	$L=1.108e-05
+ $W=3e-07	$X=25.86 $Y=149.36
Re108	net4#105	net4#396	1.223467	$MET2	$L=4.96e-06
+ $W=3e-07	$X=25.86 $Y=135.8
Re109	net6#256	net6#73	1.223467	$MET2	$L=4.96e-06
+ $W=3e-07	$X=25.86 $Y=128.43
Re110	net6#73	net6#258	2.733067	$MET2	$L=1.108e-05
+ $W=3e-07	$X=25.86 $Y=123.48
Re113	COM#377	COM#85	1.854933	$MET2	$L=7.52e-06
+ $W=3e-07	$X=26.72 $Y=145.8
Re114	COM#85	COM#380	1.223467	$MET2	$L=4.96e-06
+ $W=3e-07	$X=26.72 $Y=135.8
Re115	COM#381	COM#89	1.223467	$MET2	$L=4.96e-06
+ $W=3e-07	$X=26.72 $Y=128.43
Re116	COM#89	COM#383	1.854933	$MET2	$L=7.52e-06
+ $W=3e-07	$X=26.72 $Y=119.72
Re127	VREF#114	VREF#116	0.582079	$MET2	$L=2.37975e-06
+ $W=3e-07	$X=28.3 $Y=131.27
Re131	RES_BIAS#155	RES_BIAS#157	0.582188	$MET2	$L=2.38025e-06
+ $W=3e-07	$X=27.68 $Y=130.49
Re135	net6#260	net6#77	2.294000	$MET2	$L=9.3e-06
+ $W=3e-07	$X=29.26 $Y=147.58
Re136	net6#77	net6#263	1.223467	$MET2	$L=4.96e-06
+ $W=3e-07	$X=29.26 $Y=135.8
Re137	net4#397	net4#109	1.223467	$MET2	$L=4.96e-06
+ $W=3e-07	$X=29.26 $Y=128.43
Re138	net4#109	net4#399	2.294000	$MET2	$L=9.3e-06
+ $W=3e-07	$X=29.26 $Y=118.83
Re141	COM#395	COM#99	1.854933	$MET2	$L=7.52e-06
+ $W=3e-07	$X=30.12 $Y=145.8
Re142	COM#99	COM#398	1.223467	$MET2	$L=4.96e-06
+ $W=3e-07	$X=30.12 $Y=135.8
Re143	COM#399	COM#103	1.223467	$MET2	$L=4.96e-06
+ $W=3e-07	$X=30.12 $Y=128.43
Re144	COM#103	COM#401	1.854933	$MET2	$L=7.52e-06
+ $W=3e-07	$X=30.12 $Y=119.72
Re163	net4#401	net4#113	2.733067	$MET2	$L=1.108e-05
+ $W=3e-07	$X=32.66 $Y=149.36
Re164	net4#113	net4#404	1.223467	$MET2	$L=4.96e-06
+ $W=3e-07	$X=32.66 $Y=135.8
Re165	net6#264	net6#81	1.223467	$MET2	$L=4.96e-06
+ $W=3e-07	$X=32.66 $Y=128.43
Re166	net6#81	net6#266	2.733067	$MET2	$L=1.108e-05
+ $W=3e-07	$X=32.66 $Y=123.48
Re169	COM#413	COM#113	1.854933	$MET2	$L=7.52e-06
+ $W=3e-07	$X=33.52 $Y=145.8
Re170	COM#113	COM#416	1.223467	$MET2	$L=4.96e-06
+ $W=3e-07	$X=33.52 $Y=135.8
Re171	COM#417	COM#117	1.223467	$MET2	$L=4.96e-06
+ $W=3e-07	$X=33.52 $Y=128.43
Re172	COM#117	COM#419	1.854933	$MET2	$L=7.52e-06
+ $W=3e-07	$X=33.52 $Y=119.72
Re183	VREF#124	VREF#126	0.582079	$MET2	$L=2.37975e-06
+ $W=3e-07	$X=35.1 $Y=131.27
Re187	RES_BIAS#165	RES_BIAS#167	0.582188	$MET2	$L=2.38025e-06
+ $W=3e-07	$X=34.48 $Y=130.49
Re191	net6#268	net6#100	2.294000	$MET2	$L=9.3e-06
+ $W=3e-07	$X=36.06 $Y=147.58
Re192	net6#100	net6#271	1.223467	$MET2	$L=4.96e-06
+ $W=3e-07	$X=36.06 $Y=135.8
Re193	net4#405	net4#122	1.223467	$MET2	$L=4.96e-06
+ $W=3e-07	$X=36.06 $Y=128.43
Re194	net4#122	net4#407	2.294000	$MET2	$L=9.3e-06
+ $W=3e-07	$X=36.06 $Y=118.83
Re197	COM#431	COM#127	1.854933	$MET2	$L=7.52e-06
+ $W=3e-07	$X=36.92 $Y=145.8
Re198	COM#127	COM#434	1.223467	$MET2	$L=4.96e-06
+ $W=3e-07	$X=36.92 $Y=135.8
Re199	COM#435	COM#131	1.223467	$MET2	$L=4.96e-06
+ $W=3e-07	$X=36.92 $Y=128.43
Re200	COM#131	COM#437	1.854933	$MET2	$L=7.52e-06
+ $W=3e-07	$X=36.92 $Y=119.72
Re226	net4#409	net4#126	2.733067	$MET2	$L=1.108e-05
+ $W=3e-07	$X=39.46 $Y=149.36
Re227	net4#126	net4#412	1.223467	$MET2	$L=4.96e-06
+ $W=3e-07	$X=39.46 $Y=135.8
Re228	net6#272	net6#104	1.223467	$MET2	$L=4.96e-06
+ $W=3e-07	$X=39.46 $Y=128.43
Re229	net6#104	net6#274	2.733067	$MET2	$L=1.108e-05
+ $W=3e-07	$X=39.46 $Y=123.48
Re232	COM#449	COM#141	1.854933	$MET2	$L=7.52e-06
+ $W=3e-07	$X=40.32 $Y=145.8
Re233	COM#141	COM#452	1.223467	$MET2	$L=4.96e-06
+ $W=3e-07	$X=40.32 $Y=135.8
Re234	COM#453	COM#145	1.223467	$MET2	$L=4.96e-06
+ $W=3e-07	$X=40.32 $Y=128.43
Re235	COM#145	COM#455	1.854933	$MET2	$L=7.52e-06
+ $W=3e-07	$X=40.32 $Y=119.72
Re246	VREF#134	VREF#136	0.582079	$MET2	$L=2.37975e-06
+ $W=3e-07	$X=41.9 $Y=131.27
Re250	RES_BIAS#175	RES_BIAS#177	0.582188	$MET2	$L=2.38025e-06
+ $W=3e-07	$X=41.28 $Y=130.49
Re254	net6#276	net6#108	2.294000	$MET2	$L=9.3e-06
+ $W=3e-07	$X=42.86 $Y=147.58
Re255	net6#108	net6#279	1.223467	$MET2	$L=4.96e-06
+ $W=3e-07	$X=42.86 $Y=135.8
Re256	net4#413	net4#130	1.223467	$MET2	$L=4.96e-06
+ $W=3e-07	$X=42.86 $Y=128.43
Re257	net4#130	net4#415	2.294000	$MET2	$L=9.3e-06
+ $W=3e-07	$X=42.86 $Y=118.83
Re260	COM#467	COM#155	1.854933	$MET2	$L=7.52e-06
+ $W=3e-07	$X=43.72 $Y=145.8
Re261	COM#155	COM#470	1.223467	$MET2	$L=4.96e-06
+ $W=3e-07	$X=43.72 $Y=135.8
Re262	COM#471	COM#159	1.223467	$MET2	$L=4.96e-06
+ $W=3e-07	$X=43.72 $Y=128.43
Re263	COM#159	COM#473	1.854933	$MET2	$L=7.52e-06
+ $W=3e-07	$X=43.72 $Y=119.72
Re282	net4#417	net4#139	2.733067	$MET2	$L=1.108e-05
+ $W=3e-07	$X=46.26 $Y=149.36
Re283	net4#139	net4#420	1.223467	$MET2	$L=4.96e-06
+ $W=3e-07	$X=46.26 $Y=135.8
Re284	net6#280	net6#128	1.223467	$MET2	$L=4.96e-06
+ $W=3e-07	$X=46.26 $Y=128.43
Re285	net6#128	net6#282	2.733067	$MET2	$L=1.108e-05
+ $W=3e-07	$X=46.26 $Y=123.48
Re288	COM#485	COM#175	1.854933	$MET2	$L=7.52e-06
+ $W=3e-07	$X=47.12 $Y=145.8
Re289	COM#175	COM#488	1.223467	$MET2	$L=4.96e-06
+ $W=3e-07	$X=47.12 $Y=135.8
Re290	COM#489	COM#179	1.223467	$MET2	$L=4.96e-06
+ $W=3e-07	$X=47.12 $Y=128.43
Re291	COM#179	COM#491	1.854933	$MET2	$L=7.52e-06
+ $W=3e-07	$X=47.12 $Y=119.72
Re302	VREF#144	VREF#146	0.582079	$MET2	$L=2.37975e-06
+ $W=3e-07	$X=48.7 $Y=131.27
Re306	RES_BIAS#185	RES_BIAS#187	0.582188	$MET2	$L=2.38025e-06
+ $W=3e-07	$X=48.08 $Y=130.49
Re310	net6#284	net6#132	2.294000	$MET2	$L=9.3e-06
+ $W=3e-07	$X=49.66 $Y=147.58
Re311	net6#132	net6#287	1.223467	$MET2	$L=4.96e-06
+ $W=3e-07	$X=49.66 $Y=135.8
Re312	net4#421	net4#143	1.223467	$MET2	$L=4.96e-06
+ $W=3e-07	$X=49.66 $Y=128.43
Re313	net4#143	net4#423	2.294000	$MET2	$L=9.3e-06
+ $W=3e-07	$X=49.66 $Y=118.83
Re316	COM#503	COM#195	1.854933	$MET2	$L=7.52e-06
+ $W=3e-07	$X=50.52 $Y=145.8
Re317	COM#195	COM#506	1.223467	$MET2	$L=4.96e-06
+ $W=3e-07	$X=50.52 $Y=135.8
Re318	COM#507	COM#199	1.223467	$MET2	$L=4.96e-06
+ $W=3e-07	$X=50.52 $Y=128.43
Re319	COM#199	COM#509	1.854933	$MET2	$L=7.52e-06
+ $W=3e-07	$X=50.52 $Y=119.72
Re338	net4#425	net4#147	2.733067	$MET2	$L=1.108e-05
+ $W=3e-07	$X=53.06 $Y=149.36
Re339	net4#147	net4#428	1.223467	$MET2	$L=4.96e-06
+ $W=3e-07	$X=53.06 $Y=135.8
Re340	net6#288	net6#136	1.223467	$MET2	$L=4.96e-06
+ $W=3e-07	$X=53.06 $Y=128.43
Re341	net6#136	net6#290	2.733067	$MET2	$L=1.108e-05
+ $W=3e-07	$X=53.06 $Y=123.48
Re344	COM#521	COM#209	1.854933	$MET2	$L=7.52e-06
+ $W=3e-07	$X=53.92 $Y=145.8
Re345	COM#209	COM#524	1.223467	$MET2	$L=4.96e-06
+ $W=3e-07	$X=53.92 $Y=135.8
Re346	COM#525	COM#213	1.223467	$MET2	$L=4.96e-06
+ $W=3e-07	$X=53.92 $Y=128.43
Re347	COM#213	COM#527	1.854933	$MET2	$L=7.52e-06
+ $W=3e-07	$X=53.92 $Y=119.72
Re358	VREF#154	VREF#156	0.582079	$MET2	$L=2.37975e-06
+ $W=3e-07	$X=55.5 $Y=131.27
Re362	RES_BIAS#195	RES_BIAS#197	0.582188	$MET2	$L=2.38025e-06
+ $W=3e-07	$X=54.88 $Y=130.49
Re366	net6#292	net6#156	2.294000	$MET2	$L=9.3e-06
+ $W=3e-07	$X=56.46 $Y=147.58
Re367	net6#156	net6#295	1.223467	$MET2	$L=4.96e-06
+ $W=3e-07	$X=56.46 $Y=135.8
Re368	net4#429	net4#156	1.223467	$MET2	$L=4.96e-06
+ $W=3e-07	$X=56.46 $Y=128.43
Re369	net4#156	net4#431	2.294000	$MET2	$L=9.3e-06
+ $W=3e-07	$X=56.46 $Y=118.83
Re372	COM#539	COM#229	1.854933	$MET2	$L=7.52e-06
+ $W=3e-07	$X=57.32 $Y=145.8
Re373	COM#229	COM#542	1.223467	$MET2	$L=4.96e-06
+ $W=3e-07	$X=57.32 $Y=135.8
Re374	COM#543	COM#233	1.223467	$MET2	$L=4.96e-06
+ $W=3e-07	$X=57.32 $Y=128.43
Re375	COM#233	COM#545	1.854933	$MET2	$L=7.52e-06
+ $W=3e-07	$X=57.32 $Y=119.72
Re394	net4#433	net4#160	2.733067	$MET2	$L=1.108e-05
+ $W=3e-07	$X=59.86 $Y=149.36
Re395	net4#160	net4#436	1.223467	$MET2	$L=4.96e-06
+ $W=3e-07	$X=59.86 $Y=135.8
Re396	net6#296	net6#160	1.223467	$MET2	$L=4.96e-06
+ $W=3e-07	$X=59.86 $Y=128.43
Re397	net6#160	net6#298	2.733067	$MET2	$L=1.108e-05
+ $W=3e-07	$X=59.86 $Y=123.48
Re400	COM#557	COM#249	1.854933	$MET2	$L=7.52e-06
+ $W=3e-07	$X=60.72 $Y=145.8
Re401	COM#249	COM#560	1.223467	$MET2	$L=4.96e-06
+ $W=3e-07	$X=60.72 $Y=135.8
Re402	COM#561	COM#253	1.223467	$MET2	$L=4.96e-06
+ $W=3e-07	$X=60.72 $Y=128.43
Re403	COM#253	COM#563	1.854933	$MET2	$L=7.52e-06
+ $W=3e-07	$X=60.72 $Y=119.72
Re414	VREF#164	VREF#166	0.582079	$MET2	$L=2.37975e-06
+ $W=3e-07	$X=62.3 $Y=131.27
Re418	RES_BIAS#205	RES_BIAS#207	0.582188	$MET2	$L=2.38025e-06
+ $W=3e-07	$X=61.68 $Y=130.49
Re427	BIAS	BIAS#168	0.711400	$MET2	$L=1.406e-05
+ $W=1.46e-06	$X=39.365 $Y=51.345
Re428	BIAS#168	BIAS#169	0.778710	$MET2	$L=3.04025e-06
+ $W=2.8e-07	$X=37.845 $Y=65.405
Re429	BIAS#169	BIAS#170	0.671286	$MET2	$L=2.54e-06
+ $W=2.8e-07	$X=35.055 $Y=65.405
Re430	BIAS#170	BIAS#171	0.671286	$MET2	$L=2.54e-06
+ $W=2.8e-07	$X=32.515 $Y=65.405
Re431	BIAS#171	BIAS#172	0.671286	$MET2	$L=2.54e-06
+ $W=2.8e-07	$X=29.975 $Y=65.405
Re432	BIAS#172	BIAS#173	0.671286	$MET2	$L=2.54e-06
+ $W=2.8e-07	$X=27.435 $Y=65.405
Re433	BIAS#173	BIAS#174	0.671286	$MET2	$L=2.54e-06
+ $W=2.8e-07	$X=24.895 $Y=65.405
Re434	BIAS#174	BIAS#175	0.671286	$MET2	$L=2.54e-06
+ $W=2.8e-07	$X=22.355 $Y=65.405
Re435	BIAS#175	BIAS#176	0.671286	$MET2	$L=2.54e-06
+ $W=2.8e-07	$X=19.815 $Y=65.405
Re438	BIAS#168	BIAS#179	0.587022	$MET2	$L=2.315e-06
+ $W=2.8e-07	$X=40.5225 $Y=65.405
Re455	net6#300	net6#164	2.294000	$MET2	$L=9.3e-06
+ $W=3e-07	$X=63.26 $Y=147.58
Re456	net6#164	net6#303	1.223467	$MET2	$L=4.96e-06
+ $W=3e-07	$X=63.26 $Y=135.8
Re457	net4#437	net4#164	1.223467	$MET2	$L=4.96e-06
+ $W=3e-07	$X=63.26 $Y=128.43
Re458	net4#164	net4#439	2.294000	$MET2	$L=9.3e-06
+ $W=3e-07	$X=63.26 $Y=118.83
Re461	COM#581	COM#263	1.854933	$MET2	$L=7.52e-06
+ $W=3e-07	$X=64.12 $Y=145.8
Re462	COM#263	COM#584	1.223467	$MET2	$L=4.96e-06
+ $W=3e-07	$X=64.12 $Y=135.8
Re463	COM#585	COM#267	1.223467	$MET2	$L=4.96e-06
+ $W=3e-07	$X=64.12 $Y=128.43
Re464	COM#267	COM#587	1.854933	$MET2	$L=7.52e-06
+ $W=3e-07	$X=64.12 $Y=119.72
Re478	COM#599	COM#279	1.854933	$MET2	$L=7.52e-06
+ $W=3e-07	$X=66.66 $Y=145.8
Re479	COM#279	COM#602	1.329479	$MET2	$L=5.40975e-06
+ $W=3e-07	$X=66.66 $Y=135.575
Re484	COM#605	COM#283	1.329588	$MET2	$L=5.41025e-06
+ $W=3e-07	$X=66.66 $Y=128.89
Re485	COM#283	COM#609	1.854933	$MET2	$L=7.52e-06
+ $W=3e-07	$X=66.66 $Y=119.72
Re490	GNDA#224	GNDA#228	2.405000	$MET2	$L=3.12e-05
+ $W=9.6e-07	$X=36.08 $Y=42.3
Re493	net123#131	net123#132	3.478000	$MET2	$L=2.162e-05
+ $W=4.6e-07	$X=56.25 $Y=41.27
Re494	net123#132	net123#133	1.003826	$MET2	$L=6.24e-06
+ $W=4.6e-07	$X=42.32 $Y=41.27
Re495	net123#133	net123#134	1.003826	$MET2	$L=6.24e-06
+ $W=4.6e-07	$X=36.08 $Y=41.27
Re496	net123#134	net123#135	1.003826	$MET2	$L=6.24e-06
+ $W=4.6e-07	$X=29.84 $Y=41.27
Re497	net123#135	net123#136	2.067174	$MET2	$L=1.36e-05
+ $W=4.6e-07	$X=20.295 $Y=41.27
Re514	net7#318	net7#320	3.962854	$MET2	$L=5.141e-05
+ $W=9.6e-07	$X=38.825 $Y=27.85
Re515	net123#137	net123#138	1.185542	$MET2	$L=1.538e-05
+ $W=9.6e-07	$X=59.37 $Y=25.29
Re522	net123#138	net123#145	0.990521	$MET2	$L=1.36e-05
+ $W=9.6e-07	$X=20.295 $Y=25.29
Re536	net7#321	net7#323	1.739000	$MET2	$L=2.256e-05
+ $W=9.6e-07	$X=53.25 $Y=11.76
Re537	net7#323	net7#324	2.223854	$MET2	$L=2.885e-05
+ $W=9.6e-07	$X=27.545 $Y=11.76
Re538	net123#146	net123#147	1.453021	$MET2	$L=1.885e-05
+ $W=9.6e-07	$X=57.635 $Y=9.2
Re539	net123#147	net123#148	0.962000	$MET2	$L=1.248e-05
+ $W=9.6e-07	$X=41.97 $Y=9.2
Re540	net123#148	net123#149	1.685042	$MET2	$L=2.261e-05
+ $W=9.6e-07	$X=24.8 $Y=9.2
Re547	net5#51	net5#58	1.333098	$MET2	$L=2.6335e-05
+ $W=1.46e-06	$X=68.23 $Y=52.905
Re548	net5#58	net5#59	0.814169	$MET2	$L=1.609e-05
+ $W=1.46e-06	$X=68.23 $Y=26.57
Re550	net5#59	net5#61	0.914208	$MET2	$L=1.186e-05
+ $W=9.6e-07	$X=60.38 $Y=10.48
Re551	net5#61	net5#62	1.924000	$MET2	$L=2.496e-05
+ $W=9.6e-07	$X=41.97 $Y=10.48
Re553	net5#58	net5#64	1.395208	$MET2	$L=1.81e-05
+ $W=9.6e-07	$X=57.26 $Y=26.57
Re554	net5#64	net5#65	0.962000	$MET2	$L=1.248e-05
+ $W=9.6e-07	$X=41.97 $Y=26.57
Re555	net5#65	net5#66	1.742854	$MET2	$L=2.261e-05
+ $W=9.6e-07	$X=24.425 $Y=26.57
Re558	net5#62	net5#69	1.261854	$MET2	$L=1.637e-05
+ $W=9.6e-07	$X=21.305 $Y=10.48
Re563	GNDA#260	GNDA#262	1.144357	$MET2	$L=3.031e-05
+ $W=1.96e-06	$X=117.24 $Y=100.86
Re565	GNDA#262	GNDA#264	1.135673	$MET2	$L=3.008e-05
+ $W=1.96e-06	$X=117.24 $Y=69.39
Re567	GNDA#264	GNDA#266	1.144357	$MET2	$L=3.031e-05
+ $W=1.96e-06	$X=117.24 $Y=38.15
Re569	net6#304	net6#305	3.508565	$MET2	$L=2.181e-05
+ $W=4.6e-07	$X=117.835 $Y=201.56
Re570	net6#305	net6#306	1.808174	$MET2	$L=1.124e-05
+ $W=4.6e-07	$X=101.31 $Y=201.56
Re571	net6#306	net6#307	1.808174	$MET2	$L=1.124e-05
+ $W=4.6e-07	$X=90.07 $Y=201.56
Re572	net6#307	net6#308	1.808174	$MET2	$L=1.124e-05
+ $W=4.6e-07	$X=78.83 $Y=201.56
Re573	net6#308	net6#309	1.808174	$MET2	$L=1.124e-05
+ $W=4.6e-07	$X=67.59 $Y=201.56
Re574	net6#309	net6#310	1.808174	$MET2	$L=1.124e-05
+ $W=4.6e-07	$X=56.35 $Y=201.56
Re575	net6#310	net6#311	1.808174	$MET2	$L=1.124e-05
+ $W=4.6e-07	$X=45.11 $Y=201.56
Re576	net6#311	net6#312	1.808174	$MET2	$L=1.124e-05
+ $W=4.6e-07	$X=33.87 $Y=201.56
Re577	net6#312	net6#313	3.387913	$MET2	$L=2.181e-05
+ $W=4.6e-07	$X=17.72 $Y=201.56
Re582	VDDA#546	VDDA#551	0.569699	$MET2	$L=1.124e-05
+ $W=1.46e-06	$X=107.28 $Y=187.94
Re583	VDDA#551	VDDA#552	0.569699	$MET2	$L=1.124e-05
+ $W=1.46e-06	$X=96.04 $Y=187.94
Re584	VDDA#552	VDDA#553	0.569699	$MET2	$L=1.124e-05
+ $W=1.46e-06	$X=84.8 $Y=187.94
Re585	VDDA#553	VDDA#554	0.569699	$MET2	$L=1.124e-05
+ $W=1.46e-06	$X=73.56 $Y=187.94
Re586	VDDA#554	VDDA#555	0.569699	$MET2	$L=1.124e-05
+ $W=1.46e-06	$X=62.32 $Y=187.94
Re587	VDDA#555	VDDA#556	0.569699	$MET2	$L=1.124e-05
+ $W=1.46e-06	$X=51.08 $Y=187.94
Re588	VDDA#556	VDDA#557	0.569699	$MET2	$L=1.124e-05
+ $W=1.46e-06	$X=39.84 $Y=187.94
Re589	VDDA#557	VDDA#558	0.569699	$MET2	$L=1.124e-05
+ $W=1.46e-06	$X=28.6 $Y=187.94
Re595	net6#314	net6#315	0.838329	$MET2	$L=1.654e-05
+ $W=1.46e-06	$X=120.47 $Y=184.38
Re597	net6#315	net6#317	0.569699	$MET2	$L=1.124e-05
+ $W=1.46e-06	$X=101.31 $Y=184.38
Re600	net6#317	net6#320	0.569699	$MET2	$L=1.124e-05
+ $W=1.46e-06	$X=78.83 $Y=184.38
Re603	net6#320	net6#323	0.569699	$MET2	$L=1.124e-05
+ $W=1.46e-06	$X=56.35 $Y=184.38
Re606	net6#323	net6#326	0.569699	$MET2	$L=1.124e-05
+ $W=1.46e-06	$X=33.87 $Y=184.38
Re607	net6#326	net6#327	1.067425	$MET2	$L=2.181e-05
+ $W=1.46e-06	$X=17.72 $Y=184.38
Re610	VDDA#564	VDDA#567	0.534219	$MET2	$L=1.054e-05
+ $W=1.46e-06	$X=118.17 $Y=170.26
Re611	VDDA#567	VDDA#568	0.569699	$MET2	$L=1.124e-05
+ $W=1.46e-06	$X=107.28 $Y=170.26
Re612	VDDA#568	VDDA#569	0.569699	$MET2	$L=1.124e-05
+ $W=1.46e-06	$X=96.04 $Y=170.26
Re613	VDDA#569	VDDA#570	0.569699	$MET2	$L=1.124e-05
+ $W=1.46e-06	$X=84.8 $Y=170.26
Re614	VDDA#570	VDDA#571	0.569699	$MET2	$L=1.124e-05
+ $W=1.46e-06	$X=73.56 $Y=170.26
Re615	VDDA#571	VDDA#572	0.569699	$MET2	$L=1.124e-05
+ $W=1.46e-06	$X=62.32 $Y=170.26
Re616	VDDA#572	VDDA#573	0.569699	$MET2	$L=1.124e-05
+ $W=1.46e-06	$X=51.08 $Y=170.26
Re617	VDDA#573	VDDA#574	0.569699	$MET2	$L=1.124e-05
+ $W=1.46e-06	$X=39.84 $Y=170.26
Re618	VDDA#574	VDDA#575	0.569699	$MET2	$L=1.124e-05
+ $W=1.46e-06	$X=28.6 $Y=170.26
Re620	VDDA#575	VDDA#577	0.534219	$MET2	$L=1.054e-05
+ $W=1.46e-06	$X=17.01 $Y=170.26
Re623	net4#441	net4#442	1.942247	$MET2	$L=3.832e-05
+ $W=1.46e-06	$X=25.6 $Y=168.48
Re624	net4#442	net4#443	1.139397	$MET2	$L=2.248e-05
+ $W=1.46e-06	$X=56 $Y=168.48
Re625	net4#443	net4#444	1.139397	$MET2	$L=2.248e-05
+ $W=1.46e-06	$X=78.48 $Y=168.48
Re626	net4#444	net4#445	1.139397	$MET2	$L=2.248e-05
+ $W=1.46e-06	$X=100.96 $Y=168.48
Re627	net4#445	net4#446	0.800315	$MET2	$L=1.654e-05
+ $W=1.46e-06	$X=120.095 $Y=168.48
Re628	net6#328	net6#329	1.408027	$MET2	$L=2.778e-05
+ $W=1.46e-06	$X=114.85 $Y=166.7
Re629	net6#329	net6#330	1.139397	$MET2	$L=2.248e-05
+ $W=1.46e-06	$X=89.72 $Y=166.7
Re630	net6#330	net6#331	1.139397	$MET2	$L=2.248e-05
+ $W=1.46e-06	$X=67.24 $Y=166.7
Re631	net6#331	net6#332	1.139397	$MET2	$L=2.248e-05
+ $W=1.46e-06	$X=44.76 $Y=166.7
Re632	net6#332	net6#333	1.334534	$MET2	$L=2.708e-05
+ $W=1.46e-06	$X=20.355 $Y=166.7
Re638	net102#37	net102#43	2.162891	$MET2	$L=1.3485e-05
+ $W=4.6e-07	$X=135.79 $Y=188.2
Re639	net102#43	net102#44	0.522789	$MET2	$L=3.26975e-06
+ $W=4.6e-07	$X=137.425 $Y=201.685
Re644	net7#325	net7#328	0.563080	$MET2	$L=3.52025e-06
+ $W=4.6e-07	$X=152.92 $Y=201.685
Re645	net7#328	net7#329	2.448435	$MET2	$L=1.526e-05
+ $W=4.6e-07	$X=154.68 $Y=201.685
Re651	GNDA#268	GNDA#270	1.144357	$MET2	$L=3.031e-05
+ $W=1.96e-06	$X=154.205 $Y=100.8
Re653	GNDA#270	GNDA#272	1.135673	$MET2	$L=3.008e-05
+ $W=1.96e-06	$X=154.205 $Y=69.33
Re655	GNDA#272	GNDA#274	1.144357	$MET2	$L=3.031e-05
+ $W=1.96e-06	$X=154.205 $Y=38.09
Re669	RES_BIAS#101	RES_BIAS#214	0.700732	$MET2	$L=1.38453e-05
+ $W=1.46e-06	$X=90.2625 $Y=148.975
Re671	RES_BIAS#214	RES_BIAS#216	3.365721	$MET2	$L=6.64248e-05
+ $W=1.46e-06	$X=130.3975 $Y=146.62
Re680	OUT2#67	OUT2#69	1.639899	$MET2	$L=3.23747e-05
+ $W=1.46e-06	$X=171.1125 $Y=141.53
Re681	OUT2#69	OUT2#70	1.502808	$MET2	$L=2.969e-05
+ $W=1.46e-06	$X=154.925 $Y=141.53
Re682	OUT2#70	OUT2#71	3.596349	$MET2	$L=7.0995e-05
+ $W=1.46e-06	$X=119.4275 $Y=111.84
Re683	OUT2#71	OUT2#2	1.329478	$MET2	$L=2.62502e-05
+ $W=1.46e-06	$X=83.93 $Y=111.84
Re684	OUT2#2	OUT2#8	1.583397	$MET2	$L=3.124e-05	$W=1.46e-06
+ $X=83.93 $Y=85.59
Re685	OUT2#8	OUT2#14	1.583397	$MET2	$L=3.124e-05
+ $W=1.46e-06	$X=83.93 $Y=54.35
Re686	OUT2#14	OUT2#75	0.800822	$MET2	$L=1.58e-05
+ $W=1.46e-06	$X=83.93 $Y=23.11
Re692	OUT1	OUT1#73	1.995466	$MET2	$L=3.941e-05
+ $W=1.46e-06	$X=176.7 $Y=139.165
Re693	OUT1#73	OUT1#74	1.564390	$MET2	$L=3.0905e-05
+ $W=1.46e-06	$X=156.995 $Y=139.165
Re694	OUT1#74	OUT1#75	1.827699	$MET2	$L=3.61e-05
+ $W=1.46e-06	$X=138.945 $Y=108.26
Re695	OUT1#75	OUT1#2	1.151067	$MET2	$L=2.27302e-05
+ $W=1.46e-06	$X=120.895 $Y=108.26
Re696	OUT1#2	OUT1#8	1.583397	$MET2	$L=3.124e-05	$W=1.46e-06
+ $X=120.895 $Y=85.53
Re697	OUT1#8	OUT1#14	1.583397	$MET2	$L=3.124e-05
+ $W=1.46e-06	$X=120.895 $Y=54.29
Re698	OUT1#14	OUT1#79	0.800822	$MET2	$L=1.58e-05
+ $W=1.46e-06	$X=120.895 $Y=23.05
Re735	net7#334	net7#345	1.616739	$MET2	$L=1.005e-05
+ $W=4.6e-07	$X=208.665 $Y=161.88
Re745	net7#345	net7#355	1.608696	$MET2	$L=1e-05
+ $W=4.6e-07	$X=184.78 $Y=161.88
Re757	net7#355	net7#367	1.614326	$MET2	$L=1.0695e-05
+ $W=4.6e-07	$X=157.8225 $Y=161.88
Re782	net8#125	net8#126	0.863164	$MET2	$L=1.703e-05
+ $W=1.46e-06	$X=221.59 $Y=192.115
Re787	net8#126	net8#131	0.656877	$MET2	$L=1.296e-05
+ $W=1.46e-06	$X=180.675 $Y=192.115
Re788	net8#131	net8#132	0.676137	$MET2	$L=1.409e-05
+ $W=1.46e-06	$X=167.525 $Y=192.115
Re790	net2#106	net2#108	0.570712	$MET2	$L=1.126e-05
+ $W=1.46e-06	$X=221.945 $Y=190.335
Re791	net2#108	net2#109	0.656877	$MET2	$L=1.296e-05
+ $W=1.46e-06	$X=209.835 $Y=190.335
Re792	net2#109	net2#110	0.656877	$MET2	$L=1.296e-05
+ $W=1.46e-06	$X=196.875 $Y=190.335
Re793	net2#110	net2#111	0.656877	$MET2	$L=1.296e-05
+ $W=1.46e-06	$X=183.915 $Y=190.335
Re794	net2#111	net2#112	0.878370	$MET2	$L=1.733e-05
+ $W=1.46e-06	$X=168.77 $Y=190.335
Re795	net1#106	net1#107	0.549932	$MET2	$L=1.085e-05
+ $W=1.46e-06	$X=165.53 $Y=188.555
Re798	net1#107	net1#110	0.656877	$MET2	$L=1.296e-05
+ $W=1.46e-06	$X=190.395 $Y=188.555
Re799	net1#110	net1#111	0.656877	$MET2	$L=1.296e-05
+ $W=1.46e-06	$X=203.355 $Y=188.555
Re825	net8#133	net8#134	0.698945	$MET2	$L=1.379e-05
+ $W=1.46e-06	$X=223.21 $Y=172.095
Re826	net8#134	net8#135	0.656877	$MET2	$L=1.296e-05
+ $W=1.46e-06	$X=209.835 $Y=172.095
Re831	net8#135	net8#140	0.840356	$MET2	$L=1.733e-05
+ $W=1.46e-06	$X=169.145 $Y=172.095
Re836	net2#113	net2#118	0.656877	$MET2	$L=1.296e-05
+ $W=1.46e-06	$X=200.115 $Y=170.315
Re837	net2#118	net2#119	0.656877	$MET2	$L=1.296e-05
+ $W=1.46e-06	$X=187.155 $Y=170.315
Re839	net2#119	net2#121	0.549932	$MET2	$L=1.085e-05
+ $W=1.46e-06	$X=165.53 $Y=170.315
Re840	net1#114	net1#115	0.714151	$MET2	$L=1.409e-05
+ $W=1.46e-06	$X=167.15 $Y=168.535
Re841	net1#115	net1#116	0.656877	$MET2	$L=1.296e-05
+ $W=1.46e-06	$X=180.675 $Y=168.535
Re842	net1#116	net1#117	0.656877	$MET2	$L=1.296e-05
+ $W=1.46e-06	$X=193.635 $Y=168.535
Re843	net1#117	net1#118	0.656877	$MET2	$L=1.296e-05
+ $W=1.46e-06	$X=206.595 $Y=168.535
Re844	net1#118	net1#119	0.825151	$MET2	$L=1.703e-05
+ $W=1.46e-06	$X=221.215 $Y=168.535
Re845	net4#447	net4#448	3.573583	$MET2	$L=1.159e-05
+ $W=2.4e-07	$X=224.31 $Y=207.405
Re846	net4#448	net4#449	0.999000	$MET2	$L=3.24e-06
+ $W=2.4e-07	$X=216.895 $Y=207.405
Re847	net4#449	net4#450	0.999000	$MET2	$L=3.24e-06
+ $W=2.4e-07	$X=213.655 $Y=207.405
Re848	net4#450	net4#451	0.999000	$MET2	$L=3.24e-06
+ $W=2.4e-07	$X=210.415 $Y=207.405
Re849	net4#451	net4#452	0.999000	$MET2	$L=3.24e-06
+ $W=2.4e-07	$X=207.175 $Y=207.405
Re850	net4#452	net4#453	0.999000	$MET2	$L=3.24e-06
+ $W=2.4e-07	$X=203.935 $Y=207.405
Re851	net4#453	net4#454	0.999000	$MET2	$L=3.24e-06
+ $W=2.4e-07	$X=200.695 $Y=207.405
Re852	net4#454	net4#455	0.999000	$MET2	$L=3.24e-06
+ $W=2.4e-07	$X=197.455 $Y=207.405
Re853	net4#455	net4#456	0.999000	$MET2	$L=3.24e-06
+ $W=2.4e-07	$X=194.215 $Y=207.405
Re854	net4#456	net4#457	0.999000	$MET2	$L=3.24e-06
+ $W=2.4e-07	$X=190.975 $Y=207.405
Re855	net4#457	net4#458	0.999000	$MET2	$L=3.24e-06
+ $W=2.4e-07	$X=187.735 $Y=207.405
Re856	net4#458	net4#459	0.999000	$MET2	$L=3.24e-06
+ $W=2.4e-07	$X=184.495 $Y=207.405
Re857	net4#459	net4#460	0.999000	$MET2	$L=3.24e-06
+ $W=2.4e-07	$X=181.255 $Y=207.405
Re858	net4#460	net4#461	0.999000	$MET2	$L=3.24e-06
+ $W=2.4e-07	$X=178.015 $Y=207.405
Re859	net4#461	net4#462	0.999000	$MET2	$L=3.24e-06
+ $W=2.4e-07	$X=174.775 $Y=207.405
Re860	net4#462	net4#463	0.999000	$MET2	$L=3.24e-06
+ $W=2.4e-07	$X=171.535 $Y=207.405
Re861	net4#463	net4#464	3.201976	$MET2	$L=1.04047e-05
+ $W=2.4e-07	$X=164.7125 $Y=207.405
Re862	net4#464	net4#465	6.160500	$MET2	$L=2.002e-05
+ $W=2.4e-07	$X=159.51 $Y=207.405
Re863	net4#465	net4#466	0.753875	$MET2	$L=2.485e-06
+ $W=2.4e-07	$X=158.2675 $Y=187.385
Re864	net4#466	net4#467	1.250292	$MET2	$L=4.095e-06
+ $W=2.4e-07	$X=157.025 $Y=187.385
Re865	net4#467	net4#468	7.674464	$MET2	$L=2.529e-05
+ $W=1e-06	$X=144.38 $Y=183.29
Re868	net4#468	net4#471	1.370014	$MET2	$L=2.703e-05
+ $W=1.46e-06	$X=114.475 $Y=186.16
Re869	net4#471	net4#472	1.139397	$MET2	$L=2.248e-05
+ $W=1.46e-06	$X=89.72 $Y=186.16
Re870	net4#472	net4#473	1.139397	$MET2	$L=2.248e-05
+ $W=1.46e-06	$X=67.24 $Y=186.16
Re871	net4#473	net4#474	1.139397	$MET2	$L=2.248e-05
+ $W=1.46e-06	$X=44.76 $Y=186.16
Re872	net4#465	net4#475	3.201976	$MET2	$L=1.04047e-05
+ $W=2.4e-07	$X=164.7125 $Y=187.385
Re873	net4#475	net4#476	0.999000	$MET2	$L=3.24e-06
+ $W=2.4e-07	$X=171.535 $Y=187.385
Re874	net4#476	net4#477	0.999000	$MET2	$L=3.24e-06
+ $W=2.4e-07	$X=174.775 $Y=187.385
Re875	net4#477	net4#478	0.999000	$MET2	$L=3.24e-06
+ $W=2.4e-07	$X=178.015 $Y=187.385
Re876	net4#478	net4#479	0.999000	$MET2	$L=3.24e-06
+ $W=2.4e-07	$X=181.255 $Y=187.385
Re877	net4#479	net4#480	0.999000	$MET2	$L=3.24e-06
+ $W=2.4e-07	$X=184.495 $Y=187.385
Re878	net4#480	net4#481	0.999000	$MET2	$L=3.24e-06
+ $W=2.4e-07	$X=187.735 $Y=187.385
Re879	net4#481	net4#482	0.999000	$MET2	$L=3.24e-06
+ $W=2.4e-07	$X=190.975 $Y=187.385
Re880	net4#482	net4#483	0.999000	$MET2	$L=3.24e-06
+ $W=2.4e-07	$X=194.215 $Y=187.385
Re881	net4#483	net4#484	0.999000	$MET2	$L=3.24e-06
+ $W=2.4e-07	$X=197.455 $Y=187.385
Re882	net4#484	net4#485	0.999000	$MET2	$L=3.24e-06
+ $W=2.4e-07	$X=200.695 $Y=187.385
Re883	net4#485	net4#486	0.999000	$MET2	$L=3.24e-06
+ $W=2.4e-07	$X=203.935 $Y=187.385
Re884	net4#486	net4#487	0.999000	$MET2	$L=3.24e-06
+ $W=2.4e-07	$X=207.175 $Y=187.385
Re885	net4#487	net4#488	0.999000	$MET2	$L=3.24e-06
+ $W=2.4e-07	$X=210.415 $Y=187.385
Re886	net4#488	net4#489	0.999000	$MET2	$L=3.24e-06
+ $W=2.4e-07	$X=213.655 $Y=187.385
Re887	net4#489	net4#490	0.999000	$MET2	$L=3.24e-06
+ $W=2.4e-07	$X=216.895 $Y=187.385
Re888	net4#490	net4#491	3.573583	$MET2	$L=1.159e-05
+ $W=2.4e-07	$X=224.31 $Y=187.385
Re892	net4#474	net4#495	1.372548	$MET2	$L=2.708e-05
+ $W=1.46e-06	$X=19.98 $Y=186.16
Re895	VDDA#629	VDDA#517	2.791726	$MET2	$L=5.508e-05
+ $W=1.46e-06	$X=194.215 $Y=208.575
Re900	VDDA#517	VDDA	0.643066	$MET2	$L=5.84453e-05
+ $W=6.725e-06	$X=104.572 $Y=208.3625
Re906	VDDA	VDDA#642	0.626288	$MET2	$L=5.60578e-05
+ $W=6.725e-06	$X=31.781 $Y=208.3625
Re908	VDDA#642	VDDA#644	1.841920	$MET2	$L=6.6355e-05
+ $W=2.665e-06	$X=3.9 $Y=204.98
Re909	VDDA#517	VDDA#645	1.106303	$MET2	$L=2.19373e-05
+ $W=1.46e-06	$X=133.795 $Y=208.3625
Rf2	VDDA#29	VDDA#31	1.368555	$MET1	$L=5.6875e-06
+ $W=3.2e-07	$X=11.74 $Y=170.26
Rf3	VDDA#31	VDDA#33	1.209742	$MET1	$L=5.6725e-06
+ $W=3.2e-07	$X=11.74 $Y=179.121
Rf28	net123#28	net123#31	1.171266	$MET1	$L=4.86775e-06
+ $W=3.2e-07	$X=17.275 $Y=53.8345
Rf29	net123#31	net123#33	1.209742	$MET1	$L=5.6725e-06
+ $W=3.2e-07	$X=17.275 $Y=61.216
Rf31	GNDA#16	GNDA#18	1.281930	$MET1	$L=5.3275e-06
+ $W=3.2e-07	$X=17.71 $Y=29.13
Rf32	GNDA#18	GNDA#20	1.209742	$MET1	$L=5.6725e-06
+ $W=3.2e-07	$X=17.71 $Y=36.971
Rf34	GNDA#21	GNDA#23	1.281930	$MET1	$L=5.3275e-06
+ $W=3.2e-07	$X=17.71 $Y=13.04
Rf35	GNDA#23	GNDA#25	1.209742	$MET1	$L=5.6725e-06
+ $W=3.2e-07	$X=17.71 $Y=20.881
Rf60	BIAS#54	BIAS#57	1.599579	$MET1	$L=6.64775e-06
+ $W=3.2e-07	$X=19.815 $Y=52.0545
Rf61	BIAS#57	BIAS#59	1.209742	$MET1	$L=5.6725e-06
+ $W=3.2e-07	$X=19.815 $Y=61.216
Rf63	VDDA#34	VDDA#5	1.104412	$MET1	$L=4.59975e-06
+ $W=3.2e-07	$X=17.01 $Y=187.94
Rf65	VDDA#5	VDDA#38	1.035834	$MET1	$L=4.95975e-06
+ $W=3.2e-07	$X=19.1675 $Y=182.68
Rf67	VDDA#39	VDDA#41	1.368555	$MET1	$L=5.6875e-06
+ $W=3.2e-07	$X=11.74 $Y=187.94
Rf68	VDDA#41	VDDA#43	1.209742	$MET1	$L=5.0275e-06
+ $W=3.2e-07	$X=11.74 $Y=196.801
Rf70	VDDA#43	VDDA#1	1.094186	$MET1	$L=4.55725e-06
+ $W=3.2e-07	$X=14.0185 $Y=200.36
Rf71	VDDA#1	VDDA#46	1.209742	$MET1	$L=5.6725e-06
+ $W=3.2e-07	$X=18.811 $Y=200.36
Rf82	VDDA#48	VDDA#47	1.209742	$MET1	$L=5.6725e-06
+ $W=3.2e-07	$X=22.28 $Y=181.635
Rf83	VDDA#47	VDDA#50	1.527367	$MET1	$L=7.0075e-06
+ $W=3.2e-07	$X=22.28 $Y=173.4335
Rf85	VDDA#51	VDDA#53	1.368555	$MET1	$L=5.6875e-06
+ $W=3.2e-07	$X=22.28 $Y=187.94
Rf86	VDDA#53	VDDA#55	1.209742	$MET1	$L=5.6725e-06
+ $W=3.2e-07	$X=22.28 $Y=196.801
Rf97	net123#34	net123#37	1.171266	$MET1	$L=4.86775e-06
+ $W=3.2e-07	$X=22.355 $Y=53.8345
Rf98	net123#37	net123#39	1.209742	$MET1	$L=5.6725e-06
+ $W=3.2e-07	$X=22.355 $Y=61.216
Rf101	GNDA#26	GNDA#29	0.589531	$MET1	$L=2.46e-06
+ $W=3.2e-07	$X=19.25 $Y=40.53
Rf102	GNDA#26	GNDA#30	0.589411	$MET1	$L=2.46e-06
+ $W=3.2e-07	$X=21.7095 $Y=40.53
Rf104	GNDA#31	GNDA#33	1.126125	$MET1	$L=4.69e-06
+ $W=3.2e-07	$X=20.48 $Y=29.13
Rf105	GNDA#33	GNDA#34	0.589531	$MET1	$L=2.46e-06
+ $W=3.2e-07	$X=19.25 $Y=24.44
Rf106	GNDA#33	GNDA#35	0.589411	$MET1	$L=2.46e-06
+ $W=3.2e-07	$X=21.7095 $Y=24.44
Rf107	VDDA#57	VDDA#56	1.209742	$MET1	$L=5.6725e-06
+ $W=3.2e-07	$X=22.98 $Y=199.315
Rf108	VDDA#56	VDDA#59	1.527367	$MET1	$L=7.0075e-06
+ $W=3.2e-07	$X=22.98 $Y=191.1135
Rf109	VDDA#61	VDDA#60	1.209742	$MET1	$L=5.6725e-06
+ $W=3.2e-07	$X=22.98 $Y=181.635
Rf110	VDDA#60	VDDA#63	1.527367	$MET1	$L=7.0075e-06
+ $W=3.2e-07	$X=22.98 $Y=173.4335
Rf112	GNDA#36	GNDA#38	1.281930	$MET1	$L=5.3275e-06
+ $W=3.2e-07	$X=23.25 $Y=29.13
Rf113	GNDA#38	GNDA#40	1.209742	$MET1	$L=5.6725e-06
+ $W=3.2e-07	$X=23.25 $Y=36.971
Rf115	GNDA#41	GNDA#43	1.281930	$MET1	$L=5.3275e-06
+ $W=3.2e-07	$X=23.25 $Y=13.04
Rf116	GNDA#43	GNDA#45	1.209742	$MET1	$L=5.6725e-06
+ $W=3.2e-07	$X=23.25 $Y=20.881
Rf122	GNDA#46	GNDA#48	1.281930	$MET1	$L=5.3275e-06
+ $W=3.2e-07	$X=23.95 $Y=29.13
Rf123	GNDA#48	GNDA#50	1.209742	$MET1	$L=5.6725e-06
+ $W=3.2e-07	$X=23.95 $Y=36.971
Rf125	GNDA#51	GNDA#53	1.281930	$MET1	$L=5.3275e-06
+ $W=3.2e-07	$X=23.95 $Y=13.04
Rf126	GNDA#53	GNDA#55	1.209742	$MET1	$L=5.6725e-06
+ $W=3.2e-07	$X=23.95 $Y=20.881
Rf133	BIAS#70	BIAS#73	1.599579	$MET1	$L=6.64775e-06
+ $W=3.2e-07	$X=24.895 $Y=52.0545
Rf134	BIAS#73	BIAS#75	1.209742	$MET1	$L=5.6725e-06
+ $W=3.2e-07	$X=24.895 $Y=61.216
Rf159	net123#40	net123#43	1.171266	$MET1	$L=4.86775e-06
+ $W=3.2e-07	$X=27.435 $Y=53.8345
Rf160	net123#43	net123#45	1.209742	$MET1	$L=5.6725e-06
+ $W=3.2e-07	$X=27.435 $Y=61.216
Rf169	net123#46	net123#49	0.589531	$MET1	$L=2.46e-06
+ $W=3.2e-07	$X=25.49 $Y=40.53
Rf170	net123#46	net123#50	0.589411	$MET1	$L=2.46e-06
+ $W=3.2e-07	$X=27.9495 $Y=40.53
Rf173	net123#51	net123#54	0.589531	$MET1	$L=2.46e-06
+ $W=3.2e-07	$X=25.49 $Y=24.44
Rf174	net123#51	net123#55	0.589411	$MET1	$L=2.46e-06
+ $W=3.2e-07	$X=27.9495 $Y=24.44
Rf184	net123#56	net123#58	2.205930	$MET1	$L=9.1675e-06
+ $W=3.2e-07	$X=29.49 $Y=25.29
Rf185	net123#58	net123#60	1.209742	$MET1	$L=5.6725e-06
+ $W=3.2e-07	$X=29.49 $Y=36.971
Rf187	net5	net5#3	1.897930	$MET1	$L=7.8875e-06	$W=3.2e-07
+ $X=29.49 $Y=10.48
Rf188	net5#3	net5#5	1.209742	$MET1	$L=5.6725e-06	$W=3.2e-07
+ $X=29.49 $Y=20.881
Rf198	GNDA#56	GNDA#58	1.281930	$MET1	$L=5.3275e-06
+ $W=3.2e-07	$X=30.19 $Y=29.13
Rf199	GNDA#58	GNDA#60	1.209742	$MET1	$L=5.6725e-06
+ $W=3.2e-07	$X=30.19 $Y=36.971
Rf201	GNDA#61	GNDA#63	1.281930	$MET1	$L=5.3275e-06
+ $W=3.2e-07	$X=30.19 $Y=13.04
Rf202	GNDA#63	GNDA#65	1.209742	$MET1	$L=5.6725e-06
+ $W=3.2e-07	$X=30.19 $Y=20.881
Rf205	BIAS#86	BIAS#89	1.599579	$MET1	$L=6.64775e-06
+ $W=3.2e-07	$X=29.975 $Y=52.0545
Rf206	BIAS#89	BIAS#91	1.209742	$MET1	$L=5.6725e-06
+ $W=3.2e-07	$X=29.975 $Y=61.216
Rf227	net123#61	net123#64	1.171266	$MET1	$L=4.86775e-06
+ $W=3.2e-07	$X=32.515 $Y=53.8345
Rf228	net123#64	net123#66	1.209742	$MET1	$L=5.6725e-06
+ $W=3.2e-07	$X=32.515 $Y=61.216
Rf229	net6#85	net6	1.035834	$MET1	$L=4.95975e-06
+ $W=3.2e-07	$X=30.4075 $Y=200.36
Rf237	net6#5	net6#95	1.035834	$MET1	$L=4.95975e-06
+ $W=3.2e-07	$X=30.4075 $Y=182.68
Rf238	net6#97	net6#96	1.209742	$MET1	$L=5.6725e-06
+ $W=3.2e-07	$X=33.52 $Y=181.635
Rf239	net6#96	net6#99	2.383992	$MET1	$L=1.05675e-05
+ $W=3.2e-07	$X=33.52 $Y=176.6075
Rf241	net4#117	net4#119	1.955680	$MET1	$L=8.1275e-06
+ $W=3.2e-07	$X=33.52 $Y=186.16
Rf242	net4#119	net4#121	1.209742	$MET1	$L=5.6725e-06
+ $W=3.2e-07	$X=33.52 $Y=196.801
Rf248	VDDA#64	VDDA#66	1.527367	$MET1	$L=6.3475e-06
+ $W=3.2e-07	$X=34.22 $Y=187.94
Rf249	VDDA#66	VDDA#68	1.209742	$MET1	$L=5.6725e-06
+ $W=3.2e-07	$X=34.22 $Y=196.801
Rf251	VDDA#69	VDDA#71	1.527367	$MET1	$L=6.3475e-06
+ $W=3.2e-07	$X=34.22 $Y=170.26
Rf252	VDDA#71	VDDA#73	1.209742	$MET1	$L=5.6725e-06
+ $W=3.2e-07	$X=34.22 $Y=179.121
Rf259	net123#67	net123#70	0.589531	$MET1	$L=2.46e-06
+ $W=3.2e-07	$X=31.73 $Y=40.53
Rf260	net123#67	net123#71	0.589411	$MET1	$L=2.46e-06
+ $W=3.2e-07	$X=34.1895 $Y=40.53
Rf263	net123#72	net123#75	0.589531	$MET1	$L=2.46e-06
+ $W=3.2e-07	$X=31.73 $Y=24.44
Rf264	net123#72	net123#76	0.589411	$MET1	$L=2.46e-06
+ $W=3.2e-07	$X=34.1895 $Y=24.44
Rf267	BIAS#102	BIAS#105	1.599579	$MET1	$L=6.64775e-06
+ $W=3.2e-07	$X=35.055 $Y=52.0545
Rf268	BIAS#105	BIAS#107	1.209742	$MET1	$L=5.6725e-06
+ $W=3.2e-07	$X=35.055 $Y=61.216
Rf276	net5#6	net5#8	1.897930	$MET1	$L=7.8875e-06	$W=3.2e-07
+ $X=35.73 $Y=26.57
Rf277	net5#8	net5#10	1.209742	$MET1	$L=5.6725e-06
+ $W=3.2e-07	$X=35.73 $Y=36.971
Rf279	net123#77	net123#79	2.205930	$MET1	$L=9.1675e-06
+ $W=3.2e-07	$X=35.73 $Y=9.2
Rf280	net123#79	net123#81	1.209742	$MET1	$L=5.6725e-06
+ $W=3.2e-07	$X=35.73 $Y=20.881
Rf290	GNDA#66	GNDA#68	1.281930	$MET1	$L=5.3275e-06
+ $W=3.2e-07	$X=36.43 $Y=29.13
Rf291	GNDA#68	GNDA#70	1.209742	$MET1	$L=5.6725e-06
+ $W=3.2e-07	$X=36.43 $Y=36.971
Rf293	GNDA#71	GNDA#73	1.281930	$MET1	$L=5.3275e-06
+ $W=3.2e-07	$X=36.43 $Y=13.04
Rf294	GNDA#73	GNDA#75	1.209742	$MET1	$L=5.6725e-06
+ $W=3.2e-07	$X=36.43 $Y=20.881
Rf305	net123#82	net123#85	1.171266	$MET1	$L=4.86775e-06
+ $W=3.2e-07	$X=37.595 $Y=53.8345
Rf306	net123#85	net123#87	1.209742	$MET1	$L=5.6725e-06
+ $W=3.2e-07	$X=37.595 $Y=61.216
Rf327	net123#88	net123#91	0.589531	$MET1	$L=2.46e-06
+ $W=3.2e-07	$X=37.97 $Y=40.53
Rf328	net123#88	net123#92	0.589411	$MET1	$L=2.46e-06
+ $W=3.2e-07	$X=40.4295 $Y=40.53
Rf331	net123#93	net123#96	0.589531	$MET1	$L=2.46e-06
+ $W=3.2e-07	$X=37.97 $Y=24.44
Rf332	net123#93	net123#97	0.589411	$MET1	$L=2.46e-06
+ $W=3.2e-07	$X=40.4295 $Y=24.44
Rf334	net123#98	net123#100	2.205930	$MET1	$L=9.1675e-06
+ $W=3.2e-07	$X=41.97 $Y=25.29
Rf335	net123#100	net123#102	1.209742	$MET1	$L=5.6725e-06
+ $W=3.2e-07	$X=41.97 $Y=36.971
Rf337	net7#103	net7#105	1.589930	$MET1	$L=6.6075e-06
+ $W=3.2e-07	$X=41.97 $Y=11.76
Rf338	net7#105	net7#107	1.209742	$MET1	$L=5.6725e-06
+ $W=3.2e-07	$X=41.97 $Y=20.881
Rf347	net5#11	net5#14	1.171266	$MET1	$L=4.86775e-06
+ $W=3.2e-07	$X=42.21 $Y=53.6145
Rf348	net5#14	net5#16	1.209742	$MET1	$L=5.6725e-06
+ $W=3.2e-07	$X=42.21 $Y=60.996
Rf350	GNDA#76	GNDA#78	1.281930	$MET1	$L=5.3275e-06
+ $W=3.2e-07	$X=42.67 $Y=29.13
Rf351	GNDA#78	GNDA#80	1.209742	$MET1	$L=5.6725e-06
+ $W=3.2e-07	$X=42.67 $Y=36.971
Rf353	GNDA#81	GNDA#83	1.281930	$MET1	$L=5.3275e-06
+ $W=3.2e-07	$X=42.67 $Y=13.04
Rf354	GNDA#83	GNDA#85	1.209742	$MET1	$L=5.6725e-06
+ $W=3.2e-07	$X=42.67 $Y=20.881
Rf372	net6#112	net6#9	1.035834	$MET1	$L=4.95975e-06
+ $W=3.2e-07	$X=41.6475 $Y=200.36
Rf380	net6#13	net6#122	1.035834	$MET1	$L=4.95975e-06
+ $W=3.2e-07	$X=41.6475 $Y=182.68
Rf382	net6#123	net6#125	2.383992	$MET1	$L=9.9075e-06
+ $W=3.2e-07	$X=44.76 $Y=184.38
Rf383	net6#125	net6#127	1.209742	$MET1	$L=5.6725e-06
+ $W=3.2e-07	$X=44.76 $Y=196.801
Rf385	net4#134	net4#136	1.955680	$MET1	$L=8.1275e-06
+ $W=3.2e-07	$X=44.76 $Y=168.48
Rf386	net4#136	net4#138	1.209742	$MET1	$L=5.6725e-06
+ $W=3.2e-07	$X=44.76 $Y=179.121
Rf389	COM#163	COM#166	1.599579	$MET1	$L=6.64775e-06
+ $W=3.2e-07	$X=44.75 $Y=51.8345
Rf390	COM#166	COM#168	1.209742	$MET1	$L=5.6725e-06
+ $W=3.2e-07	$X=44.75 $Y=60.996
Rf392	VDDA#74	VDDA#76	1.527367	$MET1	$L=6.3475e-06
+ $W=3.2e-07	$X=45.46 $Y=187.94
Rf393	VDDA#76	VDDA#78	1.209742	$MET1	$L=5.6725e-06
+ $W=3.2e-07	$X=45.46 $Y=196.801
Rf395	VDDA#79	VDDA#81	1.527367	$MET1	$L=6.3475e-06
+ $W=3.2e-07	$X=45.46 $Y=170.26
Rf396	VDDA#81	VDDA#83	1.209742	$MET1	$L=5.6725e-06
+ $W=3.2e-07	$X=45.46 $Y=179.121
Rf422	net5#17	net5#20	1.171266	$MET1	$L=4.86775e-06
+ $W=3.2e-07	$X=47.29 $Y=53.6145
Rf423	net5#20	net5#22	1.209742	$MET1	$L=5.6725e-06
+ $W=3.2e-07	$X=47.29 $Y=60.996
Rf426	net123#103	net123#106	0.589531	$MET1	$L=2.46e-06
+ $W=3.2e-07	$X=44.21 $Y=40.53
Rf427	net123#103	net123#107	0.589411	$MET1	$L=2.46e-06
+ $W=3.2e-07	$X=46.6695 $Y=40.53
Rf430	net123#108	net123#111	0.589531	$MET1	$L=2.46e-06
+ $W=3.2e-07	$X=44.21 $Y=24.44
Rf431	net123#108	net123#112	0.589411	$MET1	$L=2.46e-06
+ $W=3.2e-07	$X=46.6695 $Y=24.44
Rf433	net5#23	net5#25	1.897930	$MET1	$L=7.8875e-06
+ $W=3.2e-07	$X=48.21 $Y=26.57
Rf434	net5#25	net5#27	1.209742	$MET1	$L=5.6725e-06
+ $W=3.2e-07	$X=48.21 $Y=36.971
Rf436	net123#113	net123#115	2.205930	$MET1	$L=9.1675e-06
+ $W=3.2e-07	$X=48.21 $Y=9.2
Rf437	net123#115	net123#117	1.209742	$MET1	$L=5.6725e-06
+ $W=3.2e-07	$X=48.21 $Y=20.881
Rf439	GNDA#86	GNDA#88	1.281930	$MET1	$L=5.3275e-06
+ $W=3.2e-07	$X=48.91 $Y=29.13
Rf440	GNDA#88	GNDA#90	1.209742	$MET1	$L=5.6725e-06
+ $W=3.2e-07	$X=48.91 $Y=36.971
Rf442	GNDA#91	GNDA#93	1.281930	$MET1	$L=5.3275e-06
+ $W=3.2e-07	$X=48.91 $Y=13.04
Rf443	GNDA#93	GNDA#95	1.209742	$MET1	$L=5.6725e-06
+ $W=3.2e-07	$X=48.91 $Y=20.881
Rf465	COM#189	COM#192	1.599579	$MET1	$L=6.64775e-06
+ $W=3.2e-07	$X=49.83 $Y=51.8345
Rf466	COM#192	COM#194	1.209742	$MET1	$L=5.6725e-06
+ $W=3.2e-07	$X=49.83 $Y=60.996
Rf484	net5#28	net5#31	1.171266	$MET1	$L=4.86775e-06
+ $W=3.2e-07	$X=52.37 $Y=53.6145
Rf485	net5#31	net5#33	1.209742	$MET1	$L=5.6725e-06
+ $W=3.2e-07	$X=52.37 $Y=60.996
Rf500	GNDA#96	GNDA#99	0.589531	$MET1	$L=2.46e-06
+ $W=3.2e-07	$X=50.45 $Y=40.53
Rf501	GNDA#96	GNDA#100	0.589411	$MET1	$L=2.46e-06
+ $W=3.2e-07	$X=52.9095 $Y=40.53
Rf504	net123#118	net123#121	0.589531	$MET1	$L=2.46e-06
+ $W=3.2e-07	$X=50.45 $Y=24.44
Rf505	net123#118	net123#122	0.589411	$MET1	$L=2.46e-06
+ $W=3.2e-07	$X=52.9095 $Y=24.44
Rf512	GNDA#101	GNDA#103	1.281930	$MET1	$L=5.3275e-06
+ $W=3.2e-07	$X=54.45 $Y=29.13
Rf513	GNDA#103	GNDA#105	1.209742	$MET1	$L=5.6725e-06
+ $W=3.2e-07	$X=54.45 $Y=36.971
Rf515	net5#34	net5#36	1.897930	$MET1	$L=7.8875e-06
+ $W=3.2e-07	$X=54.45 $Y=10.48
Rf516	net5#36	net5#38	1.209742	$MET1	$L=5.6725e-06
+ $W=3.2e-07	$X=54.45 $Y=20.881
Rf519	COM#217	COM#220	1.599579	$MET1	$L=6.64775e-06
+ $W=3.2e-07	$X=54.91 $Y=51.8345
Rf520	COM#220	COM#222	1.209742	$MET1	$L=5.6725e-06
+ $W=3.2e-07	$X=54.91 $Y=60.996
Rf522	GNDA#106	GNDA#108	1.281930	$MET1	$L=5.3275e-06
+ $W=3.2e-07	$X=55.15 $Y=29.13
Rf523	GNDA#108	GNDA#110	1.209742	$MET1	$L=5.6725e-06
+ $W=3.2e-07	$X=55.15 $Y=36.971
Rf525	GNDA#111	GNDA#113	1.281930	$MET1	$L=5.3275e-06
+ $W=3.2e-07	$X=55.15 $Y=13.04
Rf526	GNDA#113	GNDA#115	1.209742	$MET1	$L=5.6725e-06
+ $W=3.2e-07	$X=55.15 $Y=20.881
Rf527	net6#140	net6#17	1.035834	$MET1	$L=4.95975e-06
+ $W=3.2e-07	$X=52.8875 $Y=200.36
Rf535	net6#21	net6#150	1.035834	$MET1	$L=4.95975e-06
+ $W=3.2e-07	$X=52.8875 $Y=182.68
Rf543	net4#151	net4#153	1.955680	$MET1	$L=8.1275e-06
+ $W=3.2e-07	$X=56 $Y=186.16
Rf544	net4#153	net4#155	1.209742	$MET1	$L=5.6725e-06
+ $W=3.2e-07	$X=56 $Y=196.801
Rf546	net6#151	net6#153	2.383992	$MET1	$L=9.9075e-06
+ $W=3.2e-07	$X=56 $Y=166.7
Rf547	net6#153	net6#155	1.209742	$MET1	$L=5.6725e-06
+ $W=3.2e-07	$X=56 $Y=179.121
Rf557	VDDA#84	VDDA#86	1.527367	$MET1	$L=6.3475e-06
+ $W=3.2e-07	$X=56.7 $Y=187.94
Rf558	VDDA#86	VDDA#88	1.209742	$MET1	$L=5.6725e-06
+ $W=3.2e-07	$X=56.7 $Y=196.801
Rf560	VDDA#89	VDDA#91	1.527367	$MET1	$L=6.3475e-06
+ $W=3.2e-07	$X=56.7 $Y=170.26
Rf561	VDDA#91	VDDA#93	1.209742	$MET1	$L=5.6725e-06
+ $W=3.2e-07	$X=56.7 $Y=179.121
Rf573	net5#39	net5#42	1.171266	$MET1	$L=4.86775e-06
+ $W=3.2e-07	$X=57.45 $Y=53.6145
Rf574	net5#42	net5#44	1.209742	$MET1	$L=5.6725e-06
+ $W=3.2e-07	$X=57.45 $Y=60.996
Rf596	GNDA#116	GNDA#119	0.589531	$MET1	$L=2.46e-06
+ $W=3.2e-07	$X=56.69 $Y=40.53
Rf597	GNDA#116	GNDA#120	0.589411	$MET1	$L=2.46e-06
+ $W=3.2e-07	$X=59.1495 $Y=40.53
Rf599	GNDA#121	GNDA#123	1.126125	$MET1	$L=4.69e-06
+ $W=3.2e-07	$X=57.92 $Y=29.13
Rf600	GNDA#123	GNDA#124	0.589531	$MET1	$L=2.46e-06
+ $W=3.2e-07	$X=56.69 $Y=24.44
Rf601	GNDA#123	GNDA#125	0.589411	$MET1	$L=2.46e-06
+ $W=3.2e-07	$X=59.1495 $Y=24.44
Rf604	COM#243	COM#246	1.599579	$MET1	$L=6.64775e-06
+ $W=3.2e-07	$X=59.99 $Y=51.8345
Rf605	COM#246	COM#248	1.209742	$MET1	$L=5.6725e-06
+ $W=3.2e-07	$X=59.99 $Y=60.996
Rf607	GNDA#126	GNDA#128	1.281930	$MET1	$L=5.3275e-06
+ $W=3.2e-07	$X=60.69 $Y=29.13
Rf608	GNDA#128	GNDA#130	1.209742	$MET1	$L=5.6725e-06
+ $W=3.2e-07	$X=60.69 $Y=36.971
Rf610	GNDA#131	GNDA#133	1.281930	$MET1	$L=5.3275e-06
+ $W=3.2e-07	$X=60.69 $Y=13.04
Rf611	GNDA#133	GNDA#135	1.209742	$MET1	$L=5.6725e-06
+ $W=3.2e-07	$X=60.69 $Y=20.881
Rf623	net5#45	net5#48	1.171266	$MET1	$L=4.86775e-06
+ $W=3.2e-07	$X=62.53 $Y=53.6145
Rf624	net5#48	net5#50	1.209742	$MET1	$L=5.6725e-06
+ $W=3.2e-07	$X=62.53 $Y=60.996
Rf657	net6#168	net6#25	1.035834	$MET1	$L=4.95975e-06
+ $W=3.2e-07	$X=64.1275 $Y=200.36
Rf665	net6#29	net6#178	1.035834	$MET1	$L=4.95975e-06
+ $W=3.2e-07	$X=64.1275 $Y=182.68
Rf667	net6#179	net6#181	2.383992	$MET1	$L=9.9075e-06
+ $W=3.2e-07	$X=67.24 $Y=184.38
Rf668	net6#181	net6#183	1.209742	$MET1	$L=5.6725e-06
+ $W=3.2e-07	$X=67.24 $Y=196.801
Rf670	net4#168	net4#170	1.955680	$MET1	$L=8.1275e-06
+ $W=3.2e-07	$X=67.24 $Y=168.48
Rf671	net4#170	net4#172	1.209742	$MET1	$L=5.6725e-06
+ $W=3.2e-07	$X=67.24 $Y=179.121
Rf673	VDDA#94	VDDA#96	1.527367	$MET1	$L=6.3475e-06
+ $W=3.2e-07	$X=67.94 $Y=187.94
Rf674	VDDA#96	VDDA#98	1.209742	$MET1	$L=5.6725e-06
+ $W=3.2e-07	$X=67.94 $Y=196.801
Rf676	VDDA#99	VDDA#101	1.527367	$MET1	$L=6.3475e-06
+ $W=3.2e-07	$X=67.94 $Y=170.26
Rf677	VDDA#101	VDDA#103	1.209742	$MET1	$L=5.6725e-06
+ $W=3.2e-07	$X=67.94 $Y=179.121
Rf680	VDDA#104	VDDA#107	4.843725	$MET1	$L=2.01397e-05
+ $W=3.2e-07	$X=11.2675 $Y=138.16
Rf681	VDDA#107	VDDA#108	13.768562	$MET1	$L=5.724e-05
+ $W=3.2e-07	$X=39.89 $Y=115.97
Rf682	VDDA#108	VDDA#109	7.170625	$MET1	$L=2.982e-05
+ $W=3.2e-07	$X=68.51 $Y=115.97
Rf683	VDDA#109	VDDA#110	13.768562	$MET1	$L=5.724e-05
+ $W=3.2e-07	$X=39.89 $Y=145.79
Rf684	VDDA#110	VDDA#111	0.651160	$MET1	$L=2.87525e-06
+ $W=3.2e-07	$X=11.2725 $Y=145.79
Rf685	VDDA#111	VDDA#104	0.612603	$MET1	$L=2.705e-06
+ $W=3.2e-07	$X=11.27 $Y=141.565
Rf686	net6#184	net6#33	1.035834	$MET1	$L=4.95975e-06
+ $W=3.2e-07	$X=75.3675 $Y=200.36
Rf694	net6#37	net6#194	1.035834	$MET1	$L=4.95975e-06
+ $W=3.2e-07	$X=75.3675 $Y=182.68
Rf696	net4#173	net4#175	1.955680	$MET1	$L=8.1275e-06
+ $W=3.2e-07	$X=78.48 $Y=186.16
Rf697	net4#175	net4#177	1.209742	$MET1	$L=5.6725e-06
+ $W=3.2e-07	$X=78.48 $Y=196.801
Rf699	net6#195	net6#197	2.383992	$MET1	$L=9.9075e-06
+ $W=3.2e-07	$X=78.48 $Y=166.7
Rf700	net6#197	net6#199	1.209742	$MET1	$L=5.6725e-06
+ $W=3.2e-07	$X=78.48 $Y=179.121
Rf702	VDDA#112	VDDA#114	1.527367	$MET1	$L=6.3475e-06
+ $W=3.2e-07	$X=79.18 $Y=187.94
Rf703	VDDA#114	VDDA#116	1.209742	$MET1	$L=5.6725e-06
+ $W=3.2e-07	$X=79.18 $Y=196.801
Rf705	VDDA#117	VDDA#119	1.527367	$MET1	$L=6.3475e-06
+ $W=3.2e-07	$X=79.18 $Y=170.26
Rf706	VDDA#119	VDDA#121	1.209742	$MET1	$L=5.6725e-06
+ $W=3.2e-07	$X=79.18 $Y=179.121
Rf711	OUT2#19	OUT2#2	1.543008	$MET1	$L=8.245e-06
+ $W=3.2e-07	$X=85.17 $Y=98.7175
Rf716	OUT2#25	OUT2#8	1.543008	$MET1	$L=8.245e-06
+ $W=3.2e-07	$X=85.17 $Y=67.4775
Rf721	OUT2#31	OUT2#14	1.543008	$MET1	$L=8.245e-06
+ $W=3.2e-07	$X=85.17 $Y=36.2375
Rf726	net6#200	net6#41	1.035834	$MET1	$L=4.95975e-06
+ $W=3.2e-07	$X=86.6075 $Y=200.36
Rf734	net6#45	net6#210	1.035834	$MET1	$L=4.95975e-06
+ $W=3.2e-07	$X=86.6075 $Y=182.68
Rf736	net6#211	net6#213	2.383992	$MET1	$L=9.9075e-06
+ $W=3.2e-07	$X=89.72 $Y=184.38
Rf737	net6#213	net6#215	1.209742	$MET1	$L=5.6725e-06
+ $W=3.2e-07	$X=89.72 $Y=196.801
Rf739	net4#178	net4#180	1.955680	$MET1	$L=8.1275e-06
+ $W=3.2e-07	$X=89.72 $Y=168.48
Rf740	net4#180	net4#182	1.209742	$MET1	$L=5.6725e-06
+ $W=3.2e-07	$X=89.72 $Y=179.121
Rf742	VDDA#122	VDDA#124	1.527367	$MET1	$L=6.3475e-06
+ $W=3.2e-07	$X=90.42 $Y=187.94
Rf743	VDDA#124	VDDA#126	1.209742	$MET1	$L=5.6725e-06
+ $W=3.2e-07	$X=90.42 $Y=196.801
Rf745	VDDA#127	VDDA#129	1.527367	$MET1	$L=6.3475e-06
+ $W=3.2e-07	$X=90.42 $Y=170.26
Rf746	VDDA#129	VDDA#131	1.209742	$MET1	$L=5.6725e-06
+ $W=3.2e-07	$X=90.42 $Y=179.121
Rf747	net6#216	net6#49	1.035834	$MET1	$L=4.95975e-06
+ $W=3.2e-07	$X=97.8475 $Y=200.36
Rf755	net6#53	net6#226	1.035834	$MET1	$L=4.95975e-06
+ $W=3.2e-07	$X=97.8475 $Y=182.68
Rf757	net4#183	net4#185	1.955680	$MET1	$L=8.1275e-06
+ $W=3.2e-07	$X=100.96 $Y=186.16
Rf758	net4#185	net4#187	1.209742	$MET1	$L=5.6725e-06
+ $W=3.2e-07	$X=100.96 $Y=196.801
Rf760	net6#227	net6#229	2.383992	$MET1	$L=9.9075e-06
+ $W=3.2e-07	$X=100.96 $Y=166.7
Rf761	net6#229	net6#231	1.209742	$MET1	$L=5.6725e-06
+ $W=3.2e-07	$X=100.96 $Y=179.121
Rf763	VDDA#132	VDDA#134	1.527367	$MET1	$L=6.3475e-06
+ $W=3.2e-07	$X=101.66 $Y=187.94
Rf764	VDDA#134	VDDA#136	1.209742	$MET1	$L=5.6725e-06
+ $W=3.2e-07	$X=101.66 $Y=196.801
Rf766	VDDA#137	VDDA#139	1.527367	$MET1	$L=6.3475e-06
+ $W=3.2e-07	$X=101.66 $Y=170.26
Rf767	VDDA#139	VDDA#141	1.209742	$MET1	$L=5.6725e-06
+ $W=3.2e-07	$X=101.66 $Y=179.121
Rf768	net6#232	net6#57	1.035834	$MET1	$L=4.95975e-06
+ $W=3.2e-07	$X=109.0875 $Y=200.36
Rf776	net6#61	net6#242	1.035834	$MET1	$L=4.95975e-06
+ $W=3.2e-07	$X=109.0875 $Y=182.68
Rf778	net6#243	net6#245	2.383992	$MET1	$L=9.9075e-06
+ $W=3.2e-07	$X=112.2 $Y=184.38
Rf779	net6#245	net6#247	1.209742	$MET1	$L=5.6725e-06
+ $W=3.2e-07	$X=112.2 $Y=196.801
Rf781	net4#188	net4#190	1.955680	$MET1	$L=8.1275e-06
+ $W=3.2e-07	$X=112.2 $Y=168.48
Rf782	net4#190	net4#192	1.209742	$MET1	$L=5.6725e-06
+ $W=3.2e-07	$X=112.2 $Y=179.121
Rf784	VDDA#142	VDDA#144	1.527367	$MET1	$L=6.3475e-06
+ $W=3.2e-07	$X=112.9 $Y=187.94
Rf785	VDDA#144	VDDA#146	1.209742	$MET1	$L=5.6725e-06
+ $W=3.2e-07	$X=112.9 $Y=196.801
Rf787	VDDA#147	VDDA#149	1.527367	$MET1	$L=6.3475e-06
+ $W=3.2e-07	$X=112.9 $Y=170.26
Rf788	VDDA#149	VDDA#151	1.209742	$MET1	$L=5.6725e-06
+ $W=3.2e-07	$X=112.9 $Y=179.121
Rf791	GNDA#136	GNDA#139	7.387211	$MET1	$L=3.07003e-05
+ $W=3.2e-07	$X=100.92 $Y=100.86
Rf794	GNDA#140	GNDA#143	7.387211	$MET1	$L=3.07003e-05
+ $W=3.2e-07	$X=100.92 $Y=70.32
Rf797	GNDA#144	GNDA#147	7.387211	$MET1	$L=3.07003e-05
+ $W=3.2e-07	$X=100.92 $Y=69.62
Rf800	GNDA#148	GNDA#151	7.387211	$MET1	$L=3.07003e-05
+ $W=3.2e-07	$X=100.92 $Y=39.08
Rf803	GNDA#152	GNDA#155	7.387211	$MET1	$L=3.07003e-05
+ $W=3.2e-07	$X=100.92 $Y=38.38
Rf804	OUT1#19	OUT1#2	1.543008	$MET1	$L=8.245e-06
+ $W=3.2e-07	$X=122.135 $Y=98.6575
Rf809	OUT1#25	OUT1#8	1.543008	$MET1	$L=8.245e-06
+ $W=3.2e-07	$X=122.135 $Y=67.4175
Rf814	OUT1#31	OUT1#14	1.543008	$MET1	$L=8.245e-06
+ $W=3.2e-07	$X=122.135 $Y=36.1775
Rf820	VDDA#152	VDDA#13	1.104412	$MET1	$L=4.59975e-06
+ $W=3.2e-07	$X=118.17 $Y=187.94
Rf822	VDDA#13	VDDA#156	1.035834	$MET1	$L=4.95975e-06
+ $W=3.2e-07	$X=120.3275 $Y=182.68
Rf824	VDDA#157	VDDA#159	1.368555	$MET1	$L=5.6875e-06
+ $W=3.2e-07	$X=123.44 $Y=187.94
Rf825	VDDA#159	VDDA#161	1.209742	$MET1	$L=5.0275e-06
+ $W=3.2e-07	$X=123.44 $Y=196.801
Rf828	VDDA#161	VDDA#9	1.209742	$MET1	$L=9.275e-06
+ $W=3.2e-07	$X=119.971 $Y=200.36
Rf830	VDDA#165	VDDA#167	1.368555	$MET1	$L=5.6875e-06
+ $W=3.2e-07	$X=123.44 $Y=170.26
Rf831	VDDA#167	VDDA#169	1.209742	$MET1	$L=5.6725e-06
+ $W=3.2e-07	$X=123.44 $Y=179.121
Rf832	VDDA#170	VDDA#171	9.515515	$MET1	$L=3.9565e-05
+ $W=3.2e-07	$X=130.54 $Y=203.645
Rf833	VDDA#171	VDDA#172	30.247766	$MET1	$L=0.000125725
+ $W=3.2e-07	$X=67.6775 $Y=164.08
Rf834	VDDA#172	VDDA#173	9.515515	$MET1	$L=3.9565e-05
+ $W=3.2e-07	$X=4.815 $Y=164.08
Rf835	VDDA#173	VDDA	15.511890	$MET1	$L=6.468e-05
+ $W=3.2e-07	$X=37.155 $Y=203.645
Rf838	VDDA	VDDA#177	7.287767	$MET1	$L=3.21797e-05
+ $W=3.2e-07	$X=85.5875 $Y=203.645
Rf839	VDDA#177	VDDA#170	6.537130	$MET1	$L=2.88652e-05
+ $W=3.2e-07	$X=116.11 $Y=203.645
Rf842	VDDA#178	VDDA#181	1.751173	$MET1	$L=7.27775e-06
+ $W=3.2e-07	$X=137.79 $Y=187.1345
Rf843	VDDA#181	VDDA#183	1.209742	$MET1	$L=5.6725e-06
+ $W=3.2e-07	$X=137.79 $Y=196.926
Rf851	net102#13	net102#16	1.322860	$MET1	$L=5.49775e-06
+ $W=3.2e-07	$X=140.33 $Y=188.9145
Rf852	net102#16	net102#18	1.209742	$MET1	$L=5.6725e-06
+ $W=3.2e-07	$X=140.33 $Y=196.926
Rf860	VDDA#184	VDDA#187	1.751173	$MET1	$L=7.27775e-06
+ $W=3.2e-07	$X=142.87 $Y=187.1345
Rf861	VDDA#187	VDDA#189	1.209742	$MET1	$L=5.6725e-06
+ $W=3.2e-07	$X=142.87 $Y=196.926
Rf864	net102#25	net102#28	1.322860	$MET1	$L=5.49775e-06
+ $W=3.2e-07	$X=147.35 $Y=188.9145
Rf865	net102#28	net102#30	1.209742	$MET1	$L=5.6725e-06
+ $W=3.2e-07	$X=147.35 $Y=196.926
Rf873	net7#114	net7#117	1.751173	$MET1	$L=7.27775e-06
+ $W=3.2e-07	$X=149.89 $Y=187.1345
Rf874	net7#117	net7#119	1.209742	$MET1	$L=5.6725e-06
+ $W=3.2e-07	$X=149.89 $Y=196.926
Rf882	net102#31	net102#34	1.322860	$MET1	$L=5.49775e-06
+ $W=3.2e-07	$X=152.43 $Y=188.9145
Rf883	net102#34	net102#36	1.209742	$MET1	$L=5.6725e-06
+ $W=3.2e-07	$X=152.43 $Y=196.926
Rf886	GNDA#156	GNDA#159	7.387211	$MET1	$L=3.07003e-05
+ $W=3.2e-07	$X=137.885 $Y=100.8
Rf889	GNDA#160	GNDA#163	7.387211	$MET1	$L=3.07003e-05
+ $W=3.2e-07	$X=137.885 $Y=70.26
Rf892	GNDA#164	GNDA#167	7.387211	$MET1	$L=3.07003e-05
+ $W=3.2e-07	$X=137.885 $Y=69.56
Rf895	GNDA#168	GNDA#171	7.387211	$MET1	$L=3.07003e-05
+ $W=3.2e-07	$X=137.885 $Y=39.02
Rf898	GNDA#172	GNDA#175	7.387211	$MET1	$L=3.07003e-05
+ $W=3.2e-07	$X=137.885 $Y=38.32
Rf901	net8	net8#4	1.322860	$MET1	$L=5.49775e-06	$W=3.2e-07
+ $X=162.07 $Y=149.1095
Rf902	net8#4	net8#6	1.209742	$MET1	$L=5.6725e-06	$W=3.2e-07
+ $X=162.07 $Y=157.121
Rf910	RES_BIAS#104	RES_BIAS#107	1.751173	$MET1	$L=7.27775e-06
+ $W=3.2e-07	$X=163.61 $Y=147.3295
Rf911	RES_BIAS#107	RES_BIAS#109	1.209742	$MET1	$L=5.6725e-06
+ $W=3.2e-07	$X=163.61 $Y=157.121
Rf919	net8#7	net8#10	1.322860	$MET1	$L=5.49775e-06
+ $W=3.2e-07	$X=165.15 $Y=149.1095
Rf920	net8#10	net8#12	1.209742	$MET1	$L=5.6725e-06
+ $W=3.2e-07	$X=165.15 $Y=157.121
Rf923	VDDA#190	VDDA#193	1.356547	$MET1	$L=5.63775e-06
+ $W=3.2e-07	$X=165.405 $Y=194.6045
Rf924	VDDA#193	VDDA#195	1.209742	$MET1	$L=5.6725e-06
[...]
C2635	COM#547	GNDA	2.40535e-16	$X=58.5895 $Y=145.214
C2636	COM#552	GNDA	2.40535e-16	$X=58.5895 $Y=116.544
C2637	VREF#159	GNDA	1.8289e-16	$X=58.5895 $Y=132.029
C2638	RES_BIAS#200	GNDA	1.8289e-16	$X=58.5895 $Y=129.729
C2639	net4#436	GNDA	2.28311e-17	$X=59.8595 $Y=133.329
C2640	net4#433	GNDA	1.99357e-16	$X=59.8595 $Y=148.027
C2641	net6#296	GNDA	2.66015e-17	$X=59.8595 $Y=128.41
C2642	COM#560	GNDA	2.28311e-17	$X=60.7195 $Y=133.329
C2643	COM#557	GNDA	2.2236e-16	$X=60.7195 $Y=145.357
C2644	COM#561	GNDA	2.66015e-17	$X=60.7195 $Y=128.41
C2645	COM#565	GNDA	2.45293e-16	$X=61.9895 $Y=145.214
C2646	COM#570	GNDA	2.45293e-16	$X=61.9895 $Y=116.544
C2647	VREF#166	GNDA	1.39452e-16	$X=62.2995 $Y=129.399
C2648	VREF#164	GNDA	2.79102e-16	$X=62.2995 $Y=130.7995
C2649	RES_BIAS#207	GNDA	1.45313e-16	$X=61.6795 $Y=132.359
C2650	RES_BIAS#205	GNDA	2.48083e-16	$X=61.6795 $Y=130.9585
C2651	BIAS#168	GNDA	6.23841e-16	$X=39.365 $Y=62.1165
C2652	BIAS#169	GNDA	7.42277e-17	$X=36.3025 $Y=65.404
C2653	BIAS#170	GNDA	8.18683e-17	$X=33.785 $Y=65.404
C2654	BIAS#171	GNDA	8.19141e-17	$X=31.245 $Y=65.404
C2655	BIAS#172	GNDA	8.18683e-17	$X=28.705 $Y=65.404
C2656	BIAS#173	GNDA	8.19141e-17	$X=26.165 $Y=65.404
C2657	BIAS#174	GNDA	8.18683e-17	$X=23.625 $Y=65.404
C2658	BIAS#175	GNDA	8.19141e-17	$X=21.085 $Y=65.404
C2659	BIAS#176	GNDA	1.50231e-16	$X=18.2795 $Y=65.404
C2660	BIAS#179	GNDA	8.81834e-16	$X=52.37 $Y=65.304
C2661	COM#575	GNDA	6.81592e-15	$X=60.8975 $Y=57.1975
C2662	net6#303	GNDA	2.32722e-17	$X=63.2595 $Y=133.329
C2663	net6#300	GNDA	2.36145e-16	$X=63.2595 $Y=146.692
C2664	net4#437	GNDA	2.71504e-17	$X=63.2595 $Y=128.41
C2665	COM#584	GNDA	2.23057e-17	$X=64.1195 $Y=133.329
C2666	COM#581	GNDA	2.22362e-16	$X=64.1195 $Y=145.357
C2667	COM#585	GNDA	2.50252e-17	$X=64.1195 $Y=128.41
C2668	COM#589	GNDA	1.03711e-16	$X=65.3895 $Y=145.214
C2669	COM#594	GNDA	1.03711e-16	$X=65.3895 $Y=116.544
C2670	COM#602	GNDA	1.12181e-16	$X=65.4595 $Y=132.869
C2671	COM#599	GNDA	1.24412e-16	$X=66.6595 $Y=145.357
C2672	COM#605	GNDA	1.12161e-16	$X=65.4595 $Y=128.889
C2673	net123#131	GNDA	3.68003e-15	$X=56.315 $Y=41.2695
C2674	net123#132	GNDA	3.844e-16	$X=43.945 $Y=41.2695
C2675	net123#133	GNDA	7.18084e-16	$X=39.2 $Y=41.2695
C2676	net123#134	GNDA	7.43104e-16	$X=32.96 $Y=41.2695
C2677	net123#135	GNDA	1.22898e-15	$X=25.1975 $Y=41.2695
C2678	net7#320	GNDA	6.79597e-15	$X=25.7835 $Y=27.85
C2679	net7#318	GNDA	7.64723e-15	$X=52.7535 $Y=27.85
C2680	net123#137	GNDA	3.11473e-15	$X=59.4355 $Y=25.29
C2681	net123#138	GNDA	4.45133e-15	$X=36.1845 $Y=25.2905
C2682	net7#324	GNDA	7.57913e-15	$X=27.426 $Y=11.7605
C2683	net7#321	GNDA	3.7927e-15	$X=60.0255 $Y=11.76
C2684	net7#323	GNDA	2.86504e-15	$X=47.36 $Y=11.76
C2685	net123#146	GNDA	3.57805e-15	$X=57.7005 $Y=9.2
C2686	net123#147	GNDA	1.06875e-15	$X=45.155 $Y=9.1995
C2687	net123#148	GNDA	2.8865e-15	$X=33.516 $Y=9.2
C2688	net5#59	GNDA	3.1494e-15	$X=68.9875 $Y=10.48
C2689	net5#58	GNDA	5.44495e-15	$X=68.2305 $Y=29.0695
C2690	net5#69	GNDA	4.26726e-15	$X=21.185 $Y=10.48
C2691	net5#66	GNDA	7.6524e-15	$X=27.5465 $Y=26.57
C2692	net5#51	GNDA	7.20715e-15	$X=54.582 $Y=52.9045
C2693	net5#61	GNDA	4.57399e-15	$X=51.0455 $Y=10.48
C2694	net5#62	GNDA	3.19333e-15	$X=35.61 $Y=10.48
C2695	net5#64	GNDA	3.87945e-15	$X=49.4855 $Y=26.5695
C2696	net6#304	GNDA	2.16333e-17	$X=118.1595 $Y=201.5575
C2697	net6#305	GNDA	2.09786e-17	$X=104.4445 $Y=201.559
C2698	net6#306	GNDA	6.91568e-17	$X=95.69 $Y=201.5585
C2699	net6#307	GNDA	2.09786e-17	$X=84.45 $Y=201.5585
C2700	net6#308	GNDA	4.19572e-17	$X=73.21 $Y=201.5585
C2701	net6#309	GNDA	2.09786e-17	$X=61.97 $Y=201.5585
C2702	net6#310	GNDA	4.19572e-17	$X=50.73 $Y=201.5585
C2703	net6#311	GNDA	4.79545e-17	$X=39.49 $Y=201.5585
C2704	net6#312	GNDA	6.29358e-17	$X=25.7955 $Y=201.558
C2705	VDDA#546	GNDA	9.88008e-17	$X=121.9825 $Y=187.8475
C2706	VDDA#551	GNDA	2.1347e-18	$X=101.6595 $Y=187.937
C2707	VDDA#552	GNDA	2.65761e-17	$X=90.42 $Y=187.937
C2708	VDDA#553	GNDA	2.1347e-18	$X=79.18 $Y=187.937
C2709	VDDA#554	GNDA	2.65761e-17	$X=67.9405 $Y=187.937
C2710	VDDA#555	GNDA	2.1347e-18	$X=56.7005 $Y=187.937
C2711	VDDA#556	GNDA	2.65761e-17	$X=45.4605 $Y=187.937
C2712	VDDA#557	GNDA	2.1347e-18	$X=34.221 $Y=187.937
C2713	VDDA#558	GNDA	8.95758e-17	$X=13.3755 $Y=187.847
C2714	net6#314	GNDA	6.81395e-17	$X=120.534 $Y=184.376
C2715	net6#315	GNDA	3.43711e-17	$X=106.8195 $Y=184.377
C2716	net6#317	GNDA	8.55106e-17	$X=90.07 $Y=184.3745
C2717	net6#320	GNDA	8.55106e-17	$X=67.591 $Y=184.3745
C2718	net6#323	GNDA	8.55106e-17	$X=45.1115 $Y=184.3745
C2719	net6#326	GNDA	7.0904e-17	$X=25.9265 $Y=184.376
C2720	VDDA#564	GNDA	3.41322e-17	$X=124.7055 $Y=171.3865
C2721	VDDA#568	GNDA	2.44414e-17	$X=101.6595 $Y=170.2575
C2722	VDDA#570	GNDA	2.44414e-17	$X=79.18 $Y=170.2575
C2723	VDDA#572	GNDA	2.44414e-17	$X=56.7005 $Y=170.2575
C2724	VDDA#577	GNDA	5.22092e-17	$X=10.4755 $Y=171.386
C2725	net4#441	GNDA	6.29508e-17	$X=25.488 $Y=168.4725
C2726	net4#442	GNDA	4.07426e-17	$X=50.2645 $Y=168.477
C2727	net4#443	GNDA	3.19659e-17	$X=67.24 $Y=168.4755
C2728	net4#444	GNDA	3.19659e-17	$X=89.719 $Y=168.4755
C2729	net4#445	GNDA	4.60354e-17	$X=110.396 $Y=168.476
C2730	net6#328	GNDA	3.06933e-17	$X=114.914 $Y=166.6945
C2731	net6#329	GNDA	4.23398e-17	$X=95.405 $Y=166.6975
C2732	net6#330	GNDA	3.76759e-17	$X=78.4805 $Y=166.6955
C2733	net6#331	GNDA	2.85187e-17	$X=56.001 $Y=166.6955
C2734	net6#332	GNDA	4.32266e-17	$X=32.6895 $Y=166.695
C2735	net102#43	GNDA	7.05069e-16	$X=135.789 $Y=198.437
C2736	net102#37	GNDA	3.765e-15	$X=136.293 $Y=188.195
C2737	net102#44	GNDA	3.34147e-16	$X=140.5715 $Y=201.6835
C2738	net7#329	GNDA	3.63686e-15	$X=153.4245 $Y=183.451
C2739	net7#328	GNDA	8.08369e-16	$X=154.679 $Y=197.994
C2740	net7#325	GNDA	3.38337e-16	$X=149.7085 $Y=201.6835
C2741	net8#115	GNDA	4.68967e-15	$X=164.957 $Y=150.24
C2742	RES_BIAS#214	GNDA	4.09375e-15	$X=97.1845 $Y=147.7905
C2743	RES_BIAS#216	GNDA	7.18275e-15	$X=163.3875 $Y=146.6115
C2744	OUT2#71	GNDA	5.16159e-15	$X=102.0525 $Y=111.835
C2745	OUT2#70	GNDA	6.70787e-15	$X=136.7975 $Y=111.835
C2746	OUT2#69	GNDA	4.93025e-15	$X=154.9215 $Y=134.4785
C2747	OUT2#75	GNDA	8.48772e-16	$X=83.9295 $Y=14.835
C2748	OUT2#67	GNDA	4.32672e-15	$X=187.4385 $Y=141.5295
C2749	OUT1#75	GNDA	3.74383e-15	$X=130.2925 $Y=108.257
C2750	OUT1#74	GNDA	4.61178e-15	$X=147.592 $Y=108.2565
C2751	OUT1#73	GNDA	5.54804e-15	$X=167.218 $Y=139.1595
C2752	net2#97	GNDA	3.66873e-15	$X=202.047 $Y=150.343
C2753	net1#97	GNDA	3.84666e-15	$X=224.9805 $Y=150.7235
C2754	net7#334	GNDA	1.48849e-15	$X=219.111 $Y=161.878
C2755	net7#345	GNDA	1.42421e-15	$X=196.721 $Y=161.878
C2756	net7#355	GNDA	1.63388e-15	$X=171.3645 $Y=161.878
C2757	VDDA#580	GNDA	1.59663e-14	$X=194.4895 $Y=192.9745
C2758	net8#125	GNDA	4.89776e-15	$X=221.7815 $Y=192.1105
C2759	net8#126	GNDA	8.45815e-15	$X=197.0645 $Y=192.1075
C2760	net8#131	GNDA	3.44825e-15	$X=174.163 $Y=192.1115
C2761	net2#112	GNDA	4.9359e-15	$X=168.522 $Y=190.3305
C2762	net2#106	GNDA	5.30956e-15	$X=226.763 $Y=187.9905
C2763	net2#108	GNDA	3.22535e-15	$X=215.8225 $Y=190.332
C2764	net2#109	GNDA	3.42087e-15	$X=203.3525 $Y=190.3315
C2765	net2#110	GNDA	3.42106e-15	$X=190.393 $Y=190.3315
C2766	net2#111	GNDA	1.79186e-15	$X=180.4285 $Y=190.333
C2767	net1#106	GNDA	3.09021e-15	$X=165.2825 $Y=188.552
C2768	net1#107	GNDA	4.98385e-15	$X=180.426 $Y=188.55
C2769	net1#110	GNDA	3.34241e-15	$X=196.8715 $Y=188.5515
C2770	net1#111	GNDA	9.16453e-15	$X=223.0345 $Y=186.2065
C2771	VDDA#605	GNDA	1.56452e-14	$X=194.4905 $Y=175.156
C2772	net8#133	GNDA	3.96833e-15	$X=223.402 $Y=172.092
C2773	net8#134	GNDA	1.84537e-15	$X=213.2685 $Y=172.093
C2774	net8#135	GNDA	1.05519e-14	$X=189.549 $Y=172.087
C2775	net2#121	GNDA	3.06139e-15	$X=165.2825 $Y=170.3125
C2776	net2#113	GNDA	1.32138e-14	$X=221.331 $Y=171.412
C2777	net2#118	GNDA	3.41514e-15	$X=193.633 $Y=170.312
C2778	net2#119	GNDA	4.30624e-15	$X=178.807 $Y=170.3115
C2779	net1#114	GNDA	2.90052e-15	$X=166.9025 $Y=168.532
C2780	net1#115	GNDA	1.20631e-15	$X=177.188 $Y=168.533
C2781	net1#116	GNDA	2.34462e-15	$X=187.152 $Y=168.532
C2782	net1#117	GNDA	2.34462e-15	$X=200.1115 $Y=168.532
C2783	net1#118	GNDA	2.94814e-15	$X=213.836 $Y=168.5315
C2784	net4#468	GNDA	1.60512e-15	$X=134.567 $Y=181.5025
C2785	net4#467	GNDA	8.1614e-16	$X=150.722 $Y=183.2885
C2786	net4#466	GNDA	8.39477e-17	$X=157.024 $Y=186.4305
C2787	net4#465	GNDA	1.18355e-15	$X=158.818 $Y=187.3835
C2788	net4#464	GNDA	5.60427e-16	$X=159.509 $Y=202.469
C2789	net4#495	GNDA	1.08097e-16	$X=19.867 $Y=186.154
C2790	net4#447	GNDA	2.75635e-16	$X=224.7645 $Y=207.404
C2791	net4#448	GNDA	3.88694e-17	$X=218.1595 $Y=207.404
C2792	net4#449	GNDA	7.15384e-17	$X=215.2745 $Y=207.404
C2793	net4#450	GNDA	7.15384e-17	$X=212.0345 $Y=207.404
C2794	net4#451	GNDA	7.15384e-17	$X=208.7945 $Y=207.404
C2795	net4#452	GNDA	7.15384e-17	$X=205.5545 $Y=207.404
C2796	net4#453	GNDA	7.15384e-17	$X=202.3145 $Y=207.404
C2797	net4#454	GNDA	7.15384e-17	$X=199.0745 $Y=207.404
C2798	net4#455	GNDA	7.1535e-17	$X=195.8345 $Y=207.404
C2799	net4#456	GNDA	6.74212e-17	$X=192.5945 $Y=207.404
C2800	net4#457	GNDA	6.74212e-17	$X=189.3545 $Y=207.404
C2801	net4#458	GNDA	6.74212e-17	$X=186.1145 $Y=207.404
C2802	net4#459	GNDA	6.74212e-17	$X=182.8745 $Y=207.404
C2803	net4#460	GNDA	6.74212e-17	$X=179.6345 $Y=207.404
C2804	net4#461	GNDA	6.74212e-17	$X=176.3945 $Y=207.404
C2805	net4#462	GNDA	6.74212e-17	$X=173.1545 $Y=207.404
C2806	net4#463	GNDA	1.06624e-16	$X=167.928 $Y=207.404
C2807	net4#471	GNDA	1.63311e-16	$X=101.967 $Y=186.1545
C2808	net4#472	GNDA	9.2913e-17	$X=78.4805 $Y=186.1545
C2809	net4#473	GNDA	4.40701e-17	$X=56.001 $Y=186.1545
C2810	net4#474	GNDA	2.2035e-17	$X=39.0255 $Y=186.157
C2811	net4#475	GNDA	8.8584e-16	$X=167.927 $Y=187.384
C2812	net4#476	GNDA	4.06638e-16	$X=173.1535 $Y=187.384
C2813	net4#477	GNDA	4.11496e-16	$X=176.3935 $Y=187.384
C2814	net4#478	GNDA	4.17921e-16	$X=179.6335 $Y=187.384
C2815	net4#479	GNDA	4.17921e-16	$X=182.8735 $Y=187.384
C2816	net4#480	GNDA	3.77719e-16	$X=186.1135 $Y=187.384
C2817	net4#481	GNDA	3.81895e-16	$X=189.3535 $Y=187.384
C2818	net4#482	GNDA	3.77719e-16	$X=192.5935 $Y=187.384
C2819	net4#483	GNDA	4.17921e-16	$X=195.8335 $Y=187.384
C2820	net4#484	GNDA	3.77719e-16	$X=199.0735 $Y=187.384
C2821	net4#485	GNDA	3.81895e-16	$X=202.3135 $Y=187.384
C2822	net4#486	GNDA	3.77719e-16	$X=205.5535 $Y=187.384
C2823	net4#487	GNDA	4.17921e-16	$X=208.7935 $Y=187.384
C2824	net4#488	GNDA	3.77719e-16	$X=212.0335 $Y=187.384
C2825	net4#489	GNDA	4.11496e-16	$X=215.2735 $Y=187.384
C2826	net4#490	GNDA	1.64016e-15	$X=223.499 $Y=187.3835
C2827	VDDA#644	GNDA	5.30712e-15	$X=8.2275 $Y=138.6145
C2828	VDDA#645	GNDA	1.60669e-15	$X=133.793 $Y=190.871
C2829	VDDA#629	GNDA	1.44277e-15	$X=218.843 $Y=206.9155
C2830	VDDA#642	GNDA	6.9917e-15	$X=2.4285 $Y=208.315
C2831	BIAS#1	GNDA	5.33658e-16	$X=18.5455 $Y=58.0915
C2832	VDDA#1	GNDA	9.8374e-17	$X=16.776 $Y=199.9645
C2833	VDDA#5	GNDA	8.44249e-17	$X=17.0145 $Y=182.655
C2834	BIAS#4	GNDA	3.52613e-16	$X=21.0855 $Y=58.0915
C2835	BIAS#10	GNDA	3.52613e-16	$X=26.1655 $Y=58.0915
C2836	net123#4	GNDA	1.04937e-15	$X=26.722 $Y=17.7585
C2837	BIAS#13	GNDA	3.52613e-16	$X=28.7055 $Y=58.0915
C2838	BIAS#16	GNDA	3.52613e-16	$X=31.2455 $Y=58.0915
C2839	net6#5	GNDA	1.12407e-16	$X=28.254 $Y=182.9165
C2840	BIAS#19	GNDA	3.52613e-16	$X=33.7855 $Y=58.0915
C2841	net123#7	GNDA	9.95752e-16	$X=32.962 $Y=33.8475
C2842	net123#10	GNDA	7.73994e-16	$X=32.962 $Y=17.7585
C2843	BIAS#22	GNDA	4.54335e-16	$X=36.3255 $Y=58.0915
C2844	net123#13	GNDA	7.76841e-16	$X=39.2015 $Y=33.8475
C2845	net123#16	GNDA	9.95752e-16	$X=39.2015 $Y=17.7585
C2846	BIAS#25	GNDA	6.61038e-16	$X=43.48 $Y=57.8715
C2847	net6#9	GNDA	6.00308e-17	$X=39.493 $Y=200.168
C2848	net6#13	GNDA	1.20705e-16	$X=39.493 $Y=182.9165
C2849	BIAS#28	GNDA	5.49287e-16	$X=46.02 $Y=57.8715
C2850	net123#19	GNDA	1.00854e-15	$X=45.4415 $Y=33.8475
C2851	net123#22	GNDA	7.73994e-16	$X=45.4415 $Y=17.7585
C2852	BIAS#31	GNDA	5.49287e-16	$X=48.56 $Y=57.8715
C2853	BIAS#34	GNDA	5.49287e-16	$X=51.1 $Y=57.8715
C2854	net123#25	GNDA	1.01105e-15	$X=51.681 $Y=17.7585
C2855	BIAS#37	GNDA	5.49287e-16	$X=53.64 $Y=57.8715
C2856	net6#17	GNDA	1.18571e-16	$X=50.732 $Y=200.168
C2857	net6#21	GNDA	5.5406e-17	$X=50.7325 $Y=182.9165
C2858	BIAS#40	GNDA	5.49287e-16	$X=56.18 $Y=57.8715
C2859	BIAS#43	GNDA	5.46549e-16	$X=58.72 $Y=57.8715
C2860	BIAS#46	GNDA	7.08626e-16	$X=61.26 $Y=57.8715
C2861	net6#25	GNDA	5.32713e-17	$X=61.9715 $Y=200.168
C2862	net6#29	GNDA	1.20705e-16	$X=61.9715 $Y=182.9165
C2863	net6#33	GNDA	1.18571e-16	$X=73.211 $Y=200.168
C2864	net6#37	GNDA	1.04249e-16	$X=73.211 $Y=182.9165
C2865	net6#41	GNDA	5.32713e-17	$X=84.45 $Y=200.168
C2866	net6#45	GNDA	1.20705e-16	$X=84.45 $Y=182.9165
C2867	net6#49	GNDA	1.20104e-16	$X=95.6895 $Y=200.168
C2868	net6#53	GNDA	1.04249e-16	$X=95.6895 $Y=182.9165
C2869	net6#57	GNDA	7.23884e-17	$X=106.9285 $Y=200.168
C2870	net6#61	GNDA	1.88665e-16	$X=106.9285 $Y=182.9165
C2871	VDDA#9	GNDA	1.16109e-16	$X=117.9415 $Y=199.9645
C2872	VDDA#13	GNDA	1.21681e-16	$X=118.168 $Y=182.655
C2873	net102#4	GNDA	4.22674e-16	$X=141.5985 $Y=193.7995
C2874	net7#4	GNDA	4.5808e-16	$X=151.1585 $Y=193.7995
C2875	net7#7	GNDA	4.85228e-16	$X=162.8385 $Y=153.996
C2876	net7#10	GNDA	4.23904e-16	$X=164.3785 $Y=153.996
C2877	net7#13	GNDA	4.20742e-16	$X=165.9185 $Y=153.996
C2878	VDDA#17	GNDA	1.10921e-16	$X=166.673 $Y=199.6295
C2879	VDDA#20	GNDA	9.46353e-17	$X=166.673 $Y=179.61
C2880	net7#16	GNDA	4.20742e-16	$X=167.4585 $Y=153.996
C2881	net7#19	GNDA	4.20742e-16	$X=168.9985 $Y=153.996
C2882	net4#4	GNDA	2.54133e-16	$X=169.913 $Y=179.61
C2883	net7#22	GNDA	4.20742e-16	$X=170.5385 $Y=153.996
C2884	net7#25	GNDA	4.20742e-16	$X=172.0785 $Y=153.996
C2885	net7#28	GNDA	4.20742e-16	$X=173.6185 $Y=153.996
C2886	net4#7	GNDA	2.67955e-16	$X=173.153 $Y=199.6295
C2887	net4#10	GNDA	2.67955e-16	$X=173.153 $Y=179.61
C2888	net7#31	GNDA	4.20742e-16	$X=175.1585 $Y=153.996
C2889	net7#34	GNDA	4.20742e-16	$X=176.6985 $Y=153.996
C2890	net4#13	GNDA	2.67955e-16	$X=176.393 $Y=199.6295
C2891	net4#16	GNDA	2.67955e-16	$X=176.393 $Y=179.61
C2892	net7#37	GNDA	4.23904e-16	$X=178.2385 $Y=153.996
C2893	net7#40	GNDA	4.65781e-16	$X=179.7785 $Y=153.996
C2894	net4#19	GNDA	2.67955e-16	$X=179.633 $Y=199.6295
C2895	net4#22	GNDA	2.67955e-16	$X=179.633 $Y=179.61
C2896	net4#31	GNDA	2.67955e-16	$X=186.113 $Y=199.6295
C2897	net4#34	GNDA	2.67955e-16	$X=186.113 $Y=179.61
C2898	net7#43	GNDA	4.65781e-16	$X=189.7785 $Y=153.996
C2899	net4#37	GNDA	2.67955e-16	$X=189.353 $Y=199.6295
C2900	net4#40	GNDA	2.67955e-16	$X=189.353 $Y=179.61
C2901	net7#46	GNDA	4.23904e-16	$X=191.3185 $Y=153.996
C2902	net7#49	GNDA	4.20742e-16	$X=192.8585 $Y=153.996
C2903	net4#43	GNDA	2.67955e-16	$X=192.5925 $Y=199.6295
C2904	net4#46	GNDA	2.67955e-16	$X=192.5925 $Y=179.61
C2905	net7#55	GNDA	4.20884e-16	$X=195.9385 $Y=153.996
C2906	net4#49	GNDA	2.67955e-16	$X=195.8325 $Y=199.6295
C2907	net4#52	GNDA	2.67955e-16	$X=195.8325 $Y=179.61
C2908	net7#58	GNDA	4.20785e-16	$X=197.4785 $Y=153.996
C2909	net7#61	GNDA	4.20742e-16	$X=199.0185 $Y=153.996
C2910	net4#55	GNDA	2.67955e-16	$X=199.0725 $Y=199.6295
C2911	net4#58	GNDA	2.67955e-16	$X=199.0725 $Y=179.61
C2912	net7#64	GNDA	4.20742e-16	$X=200.5585 $Y=153.996
C2913	net7#67	GNDA	4.23904e-16	$X=202.0985 $Y=153.996
C2914	net4#61	GNDA	2.67955e-16	$X=202.3125 $Y=199.6295
C2915	net4#64	GNDA	2.67955e-16	$X=202.3125 $Y=179.61
C2916	net7#70	GNDA	4.76154e-16	$X=203.6385 $Y=153.996
C2917	net4#73	GNDA	2.67955e-16	$X=208.7925 $Y=199.6295
C2918	net4#76	GNDA	2.67955e-16	$X=208.7925 $Y=179.61
C2919	net4#79	GNDA	2.67955e-16	$X=212.0325 $Y=199.6295
C2920	net4#82	GNDA	2.67955e-16	$X=212.0325 $Y=179.61
C2921	net7#73	GNDA	4.65781e-16	$X=213.6885 $Y=153.996
C2922	net7#76	GNDA	4.23904e-16	$X=215.2285 $Y=153.996
C2923	net4#85	GNDA	2.67955e-16	$X=215.2725 $Y=199.6295
C2924	net4#88	GNDA	2.67955e-16	$X=215.2725 $Y=179.61
C2925	net7#82	GNDA	4.20742e-16	$X=218.3085 $Y=153.996
C2926	net4#91	GNDA	2.80586e-16	$X=218.5125 $Y=199.6295
C2927	net4#94	GNDA	2.80586e-16	$X=218.5125 $Y=179.61
C2928	net7#85	GNDA	4.20742e-16	$X=219.848 $Y=153.996
C2929	net7#88	GNDA	4.20742e-16	$X=221.388 $Y=153.996
C2930	VDDA#23	GNDA	1.1355e-16	$X=221.752 $Y=199.6295
C2931	VDDA#26	GNDA	1.14732e-16	$X=221.752 $Y=179.61
C2932	net7#91	GNDA	4.20742e-16	$X=222.928 $Y=153.996
C2933	net7#94	GNDA	4.20742e-16	$X=224.468 $Y=153.996
C2934	net7#97	GNDA	4.37596e-16	$X=226.008 $Y=153.996
C2935	net7#100	GNDA	4.8522e-16	$X=227.548 $Y=153.996
C2936	net123#150	GNDA	1.7319e-15	$X=13.8705 $Y=12.972
C2937	net123#152	GNDA	2.95777e-15	$X=13.8715 $Y=25.327
C2938	net123#153	GNDA	2.05706e-15	$X=13.871 $Y=40.1725
C2939	net5#70	GNDA	2.62705e-15	$X=66.31 $Y=34.8805
C2940	net5#71	GNDA	1.29486e-15	$X=66.3095 $Y=22.7425
C2941	net5#72	GNDA	1.70585e-15	$X=66.3095 $Y=13.6125
C2942	net4#496	GNDA	5.63702e-15	$X=22.913 $Y=145.1385
C2943	net6#340	GNDA	9.28442e-15	$X=57.1965 $Y=143.8035
C2944	VREF#169	GNDA	1.98048e-15	$X=67.67 $Y=131.269
C2945	VREF#170	GNDA	3.64041e-16	$X=61.4375 $Y=131.269
C2946	VREF#171	GNDA	1.11769e-15	$X=57.045 $Y=131.269
C2947	VREF#173	GNDA	1.11769e-15	$X=50.245 $Y=131.269
C2948	VREF#175	GNDA	1.11769e-15	$X=43.445 $Y=131.269
C2949	VREF#177	GNDA	1.11769e-15	$X=36.645 $Y=131.269
C2950	VREF#179	GNDA	1.11769e-15	$X=29.845 $Y=131.269
C2951	VREF#181	GNDA	1.11769e-15	$X=23.045 $Y=131.269
C2952	VREF#183	GNDA	1.20618e-15	$X=15.9875 $Y=131.269
C2953	COM#652	GNDA	1.62726e-14	$X=39.9005 $Y=119.1465
C2954	net4#506	GNDA	3.79472e-15	$X=10.5305 $Y=117.941
C2955	net4#508	GNDA	8.01878e-15	$X=58.3715 $Y=117.937
C2956	net6#350	GNDA	2.83283e-15	$X=69.5705 $Y=116.607
C2957	net6#352	GNDA	2.96284e-15	$X=39.2095 $Y=112.395
C2958	RES_BIAS#239	GNDA	1.45309e-15	$X=80.0945 $Y=134.9315
C2959	RES_BIAS#225	GNDA	1.77129e-15	$X=17.5315 $Y=130.489
C2960	RES_BIAS#227	GNDA	1.12346e-15	$X=26.134 $Y=130.489
C2961	RES_BIAS#229	GNDA	1.12346e-15	$X=32.934 $Y=130.489
C2962	RES_BIAS#231	GNDA	1.12346e-15	$X=39.734 $Y=130.489
C2963	RES_BIAS#233	GNDA	1.12346e-15	$X=46.534 $Y=130.489
C2964	RES_BIAS#235	GNDA	1.12346e-15	$X=53.334 $Y=130.489
C2965	RES_BIAS#237	GNDA	2.52672e-15	$X=63.81 $Y=130.4885
C2966	VDDA#656	GNDA	2.79767e-16	$X=10.228 $Y=203.5035
C2967	VDDA#661	GNDA	2.86631e-16	$X=112.5555 $Y=205.2085
C2968	net7#371	GNDA	5.91103e-15	$X=68.6615 $Y=46.095
C2969	net7#373	GNDA	6.20854e-15	$X=93.168 $Y=105.254
C2970	net7#374	GNDA	8.35141e-15	$X=132.4215 $Y=105.254
C2971	net7#368	GNDA	3.1634e-15	$X=64.53 $Y=14.252
C2972	net7#370	GNDA	4.70935e-15	$X=64.53 $Y=28.323
C2973	net7#375	GNDA	4.89283e-15	$X=152.801 $Y=153.8535
C2974	net8#141	GNDA	3.34009e-15	$X=160.8525 $Y=201.041
C2975	net2#126	GNDA	1.92477e-15	$X=212.811 $Y=165.481
C2976	net2#122	GNDA	5.18375e-15	$X=227.5705 $Y=200.1505
C2977	net1#120	GNDA	4.22925e-15	$X=229.35 $Y=199.2605
C2978	net3#15	GNDA	4.07573e-15	$X=218.991 $Y=23.214
C2979	net3#14	GNDA	7.56462e-16	$X=229.173 $Y=11.394
C2980	net3#16	GNDA	3.87418e-15	$X=218.992 $Y=54.749
C2981	net3#17	GNDA	3.82453e-15	$X=218.992 $Y=86.285
C2982	net3#18	GNDA	4.02389e-15	$X=218.993 $Y=117.821
C2983	net3#19	GNDA	1.55374e-15	$X=220.024 $Y=135.502
C2984	net3#20	GNDA	5.67704e-15	$X=193.577 $Y=131.359
C2985	net3#33	GNDA	3.38979e-15	$X=184.064 $Y=117.821
C2986	net3#34	GNDA	2.70996e-15	$X=184.0635 $Y=86.285
C2987	net3#35	GNDA	2.75964e-15	$X=184.0635 $Y=54.749
C2988	net3#36	GNDA	2.91625e-15	$X=184.0625 $Y=23.2135
C2989	net3#37	GNDA	5.65335e-16	$X=193.5835 $Y=11.3945
C2990	net3#21	GNDA	3.59785e-15	$X=125.305 $Y=135.5
C2991	net3#22	GNDA	1.20098e-15	$X=97.1085 $Y=119.323
C2992	net4#726	GNDA	2.24193e-15	$X=219.5205 $Y=25.1555
C2993	net4#727	GNDA	4.59629e-16	$X=227.893 $Y=11.3945
C2994	net4#725	GNDA	3.01061e-15	$X=219.5195 $Y=54.749
C2995	net4#724	GNDA	3.01061e-15	$X=219.5195 $Y=86.288
C2996	net4#723	GNDA	2.39186e-15	$X=219.5205 $Y=115.9165
C2997	net4#722	GNDA	2.1236e-15	$X=227.8905 $Y=131.0425
C2998	net4#633	GNDA	3.67386e-15	$X=194.8595 $Y=131.0405
C2999	net4#717	GNDA	4.3695e-15	$X=185.57 $Y=86.288
C3000	net4#718	GNDA	4.37744e-15	$X=185.57 $Y=54.749
C3001	net4#719	GNDA	3.64319e-15	$X=185.5705 $Y=25.156
C3002	net4#720	GNDA	4.49473e-16	$X=194.8635 $Y=11.3945
C3003	net4#634	GNDA	3.16589e-15	$X=154.6165 $Y=145.6945
C3004	net4#635	GNDA	2.03671e-15	$X=154.6175 $Y=169.6455
C3005	net4#539	GNDA	4.09639e-15	$X=185.5705 $Y=115.9165
*
*
.ENDS ref_bias
*
