*
*
*
*                       LINUX           Mon Aug 26 08:39:10 2024
*
*
*
*  PROGRAM  advgen
*
*  Name           : advgen - Quantus - (64-bit)
*  Version        : 23.1.1-p051
*  Build Date     : Thu Feb 15 21:11:17 PST 2024
*
*  HSPICE LIBRARY
*
* GLOBAL_TEMPERATURE 27
*  OPERATING_TEMPERATURE 27
*  QRC_TECH_DIR /pkg/xfab2/XKIT/xh018/cadence/v9_0/QRC_pvs/v9_0_1/XH018_1143/QRC-Typ 
*
*!LENGTH_UNITS METERS
*
*
*
*
*       SUBCIRCUIT DEFINITIONS
*
.SUBCKT MOSVC3 G NW SB
.ENDS
*
.SUBCKT NE3I_6 D G S B NW SB
.ENDS
*

*
.SUBCKT bias BGAP_REF BIAS1 BIAS2 BIAS3 GNDA RES_BIAS VDDA
*
*
*  caps2d version: 10
*
*       SUBCIRCUIT CALLS
*
XXI1/XM2@3 XI1/net23#11 XI1/net13#9 XI1/net25#3 XI1/net25 VDDA GNDA NE3I_6	L=2.5e-06	W=1e-05
+ AD=2.7e-12	AS=4.8e-12	PD=1.054e-05	PS=2.096e-05
+ NRD=0.0173	NRS=0.0173
XXI1/XM2@1 XI1/net23#11 XI1/net13#17 XI1/net25#10 XI1/net25 VDDA GNDA NE3I_6
+ L=2.5e-06	W=1e-05
+ AD=2.7e-12	AS=2.7e-12	PD=1.054e-05	PS=1.054e-05
+ NRD=0.0173	NRS=0.0173
XXI1/XM2@7 XI1/net23#15 XI1/net13#19 XI1/net25#10 XI1/net25 VDDA GNDA NE3I_6	L=2.5e-06	W=1e-05
+ AD=2.7e-12	AS=2.7e-12	PD=1.054e-05	PS=1.054e-05
+ NRD=0.0173	NRS=0.0173
XXI1/XM2@5 XI1/net23#15 XI1/net13#21 XI1/net25#14 XI1/net25 VDDA GNDA NE3I_6
+ L=2.5e-06	W=1e-05
+ AD=2.7e-12	AS=2.7e-12	PD=1.054e-05	PS=1.054e-05
+ NRD=0.0173	NRS=0.0173
XXI1/XM2 XI1/net23#19 XI1/net13#23 XI1/net25#14 XI1/net25 VDDA GNDA NE3I_6	L=2.5e-06	W=1e-05
+ AD=2.7e-12	AS=2.7e-12	PD=1.054e-05	PS=1.054e-05
+ NRD=0.0173	NRS=0.0173
XXI1/XM2@2 XI1/net23#19 XI1/net13#25 XI1/net25#18 XI1/net25 VDDA GNDA NE3I_6
+ L=2.5e-06	W=1e-05
+ AD=2.7e-12	AS=2.7e-12	PD=1.054e-05	PS=1.054e-05
+ NRD=0.0173	NRS=0.0173
XXI1/XM2@4 XI1/net23#23 XI1/net13#27 XI1/net25#18 XI1/net25 VDDA GNDA NE3I_6	L=2.5e-06	W=1e-05
+ AD=2.7e-12	AS=2.7e-12	PD=1.054e-05	PS=1.054e-05
+ NRD=0.0173	NRS=0.0173
XXI1/XM2@6 XI1/net23#23 XI1/net13#30 XI1/net25#31 XI1/net25 VDDA GNDA NE3I_6
+ L=2.5e-06	W=1e-05
+ AD=2.7e-12	AS=4.8e-12	PD=1.054e-05	PS=2.096e-05
+ NRD=0.0173	NRS=0.0173
XXI1/XM4 XI1/net13#32 XI1/net13#2 GNDA#42 GNDA VDDA GNDA NE3I_6	L=2.5e-06	W=1e-05
+ AD=2.7e-12	AS=4.8e-12	PD=1.054e-05	PS=2.096e-05
+ NRD=0.0173	NRS=0.0173
XXI1/XM4@1 XI1/net13#32 XI1/net13#6 GNDA#52 GNDA VDDA GNDA NE3I_6
+ L=2.5e-06	W=1e-05
+ AD=2.7e-12	AS=4.8e-12	PD=1.054e-05	PS=2.096e-05
+ NRD=0.0173	NRS=0.0173
XXC0@19 VDDA#180 GNDA GNDA MOSVC3
+ w=2.5e-05 l=3e-05 model=mosvc3
XXC0@5 VDDA#181 GNDA GNDA MOSVC3
+ w=2.5e-05 l=3e-05 model=mosvc3
XXC0@20 VDDA#168 GNDA GNDA MOSVC3
+ w=2.5e-05 l=3e-05 model=mosvc3
XXC0@18 VDDA#169 GNDA GNDA MOSVC3
+ w=2.5e-05 l=3e-05 model=mosvc3
XXC0@3 VDDA#156 GNDA GNDA MOSVC3
+ w=2.5e-05 l=3e-05 model=mosvc3
XXC0@16 VDDA#157 GNDA GNDA MOSVC3
+ w=2.5e-05 l=3e-05 model=mosvc3
XXC0@13 VDDA#144 GNDA GNDA MOSVC3
+ w=2.5e-05 l=3e-05 model=mosvc3
XXC0@12 VDDA#145 GNDA GNDA MOSVC3
+ w=2.5e-05 l=3e-05 model=mosvc3
XXC0 VDDA#132 GNDA GNDA MOSVC3
+ w=2.5e-05 l=3e-05 model=mosvc3
XXC0@15 VDDA#133 GNDA GNDA MOSVC3
+ w=2.5e-05 l=3e-05 model=mosvc3
XXC0@17 VDDA#120 GNDA GNDA MOSVC3
+ w=2.5e-05 l=3e-05 model=mosvc3
XXC0@14 VDDA#121 GNDA GNDA MOSVC3
+ w=2.5e-05 l=3e-05 model=mosvc3
XXC0@11 VDDA#108 GNDA GNDA MOSVC3
+ w=2.5e-05 l=3e-05 model=mosvc3
XXC0@25 VDDA#109 GNDA GNDA MOSVC3
+ w=2.5e-05 l=3e-05 model=mosvc3
XXC0@21 VDDA#96 GNDA GNDA MOSVC3
+ w=2.5e-05 l=3e-05 model=mosvc3
XXC0@6 VDDA#97 GNDA GNDA MOSVC3
+ w=2.5e-05 l=3e-05 model=mosvc3
XXC0@7 VDDA#81 GNDA GNDA MOSVC3
+ w=2.5e-05 l=3e-05 model=mosvc3
XXC0@22 VDDA#82 GNDA GNDA MOSVC3
+ w=2.5e-05 l=3e-05 model=mosvc3
XXC0@23 VDDA#69 GNDA GNDA MOSVC3
+ w=2.5e-05 l=3e-05 model=mosvc3
XXC0@2 VDDA#70 GNDA GNDA MOSVC3
+ w=2.5e-05 l=3e-05 model=mosvc3
XXC0@9 VDDA#51 GNDA GNDA MOSVC3
+ w=2.5e-05 l=3e-05 model=mosvc3
XXC0@4 VDDA#52 GNDA GNDA MOSVC3
+ w=2.5e-05 l=3e-05 model=mosvc3
XXC0@1 VDDA#33 GNDA GNDA MOSVC3
+ w=2.5e-05 l=3e-05 model=mosvc3
XXC0@24 VDDA#34 GNDA GNDA MOSVC3
+ w=2.5e-05 l=3e-05 model=mosvc3
XXC0@10 VDDA#21 GNDA GNDA MOSVC3
+ w=2.5e-05 l=3e-05 model=mosvc3
XXC0@8 VDDA#22 GNDA GNDA MOSVC3
+ w=2.5e-05 l=3e-05 model=mosvc3
XXI2/XC2@2 BIAS2#13 GNDA GNDA MOSVC3
+ w=3e-05 l=3e-05 model=mosvc3
XXI2/XC2 BIAS2#7 GNDA GNDA MOSVC3
+ w=3e-05 l=3e-05 model=mosvc3
XXI2/XC2@1 BIAS2#1 GNDA GNDA MOSVC3
+ w=3e-05 l=3e-05 model=mosvc3
XXI2/XC0@2 BIAS1#13 GNDA GNDA MOSVC3
+ w=3e-05 l=3e-05 model=mosvc3
XXI2/XC0 BIAS1#7 GNDA GNDA MOSVC3
+ w=3e-05 l=3e-05 model=mosvc3
XXI2/XC0@1 BIAS1#1 GNDA GNDA MOSVC3
+ w=3e-05 l=3e-05 model=mosvc3
XXI2/XM7@3 XI2/COM#283 XI2/COM#11 XI2/COM#267 XI2/COM VDDA GNDA NE3I_6	L=2e-06
+ W=1e-05
+ AD=4.8e-12	AS=4.8e-12	PD=2.096e-05	PS=2.096e-05
+ NRD=0.0173	NRS=0.0173
XXI2/XM12@1 XI2/net4#164 BGAP_REF#48 XI2/COM#253 XI2/COM VDDA GNDA NE3I_6	L=2e-06	W=1e-05
+ AD=4.8e-12	AS=4.8e-12	PD=2.096e-05	PS=2.096e-05
+ NRD=0.0173	NRS=0.0173
XXI2/XM7@1 XI2/COM#279 XI2/COM#8 XI2/COM#263 XI2/COM VDDA GNDA NE3I_6	L=2e-06
+ W=1e-05
+ AD=4.8e-12	AS=4.8e-12	PD=2.096e-05	PS=2.096e-05
+ NRD=0.0173	NRS=0.0173
XXI2/XM24@1 XI2/net6#164 RES_BIAS#41 XI2/COM#249 XI2/COM VDDA GNDA NE3I_6	L=2e-06	W=1e-05
+ AD=4.8e-12	AS=4.8e-12	PD=2.096e-05	PS=2.096e-05
+ NRD=0.0173	NRS=0.0173
XXI2/XM24@2 XI2/net6#160 RES_BIAS#38 XI2/COM#233 XI2/COM VDDA GNDA NE3I_6	L=2e-06	W=1e-05
+ AD=4.8e-12	AS=4.8e-12	PD=2.096e-05	PS=2.096e-05
+ NRD=0.0173	NRS=0.0173
XXI2/XM12@2 XI2/net4#156 BGAP_REF#42 XI2/COM#213 XI2/COM VDDA GNDA NE3I_6	L=2e-06	W=1e-05
+ AD=4.8e-12	AS=4.8e-12	PD=2.096e-05	PS=2.096e-05
+ NRD=0.0173	NRS=0.0173
XXI2/XM12@7 XI2/net4#160 BGAP_REF#45 XI2/COM#229 XI2/COM VDDA GNDA NE3I_6	L=2e-06	W=1e-05
+ AD=4.8e-12	AS=4.8e-12	PD=2.096e-05	PS=2.096e-05
+ NRD=0.0173	NRS=0.0173
XXI2/XM24@13 XI2/net6#156 RES_BIAS#35 XI2/COM#209 XI2/COM VDDA GNDA NE3I_6	L=2e-06	W=1e-05
+ AD=4.8e-12	AS=4.8e-12	PD=2.096e-05	PS=2.096e-05
+ NRD=0.0173	NRS=0.0173
XXI2/XM24@11 XI2/net6#136 RES_BIAS#32 XI2/COM#199 XI2/COM VDDA GNDA NE3I_6	L=2e-06	W=1e-05
+ AD=4.8e-12	AS=4.8e-12	PD=2.096e-05	PS=2.096e-05
+ NRD=0.0173	NRS=0.0173
XXI2/XM12@10 XI2/net4#143 BGAP_REF#36 XI2/COM#179 XI2/COM VDDA GNDA NE3I_6	L=2e-06	W=1e-05
+ AD=4.8e-12	AS=4.8e-12	PD=2.096e-05	PS=2.096e-05
+ NRD=0.0173	NRS=0.0173
XXI2/XM12@13 XI2/net4#147 BGAP_REF#39 XI2/COM#195 XI2/COM VDDA GNDA NE3I_6	L=2e-06	W=1e-05
+ AD=4.8e-12	AS=4.8e-12	PD=2.096e-05	PS=2.096e-05
+ NRD=0.0173	NRS=0.0173
XXI2/XM24 XI2/net6#132 RES_BIAS#29 XI2/COM#175 XI2/COM VDDA GNDA NE3I_6	L=2e-06	W=1e-05
+ AD=4.8e-12	AS=4.8e-12	PD=2.096e-05	PS=2.096e-05
+ NRD=0.0173	NRS=0.0173
XXI2/XM24@7 XI2/net6#128 RES_BIAS#26 XI2/COM#159 XI2/COM VDDA GNDA NE3I_6	L=2e-06	W=1e-05
+ AD=4.8e-12	AS=4.8e-12	PD=2.096e-05	PS=2.096e-05
+ NRD=0.0173	NRS=0.0173
XXI2/XM12@8 XI2/net4#130 BGAP_REF#30 XI2/COM#145 XI2/COM VDDA GNDA NE3I_6	L=2e-06	W=1e-05
+ AD=4.8e-12	AS=4.8e-12	PD=2.096e-05	PS=2.096e-05
+ NRD=0.0173	NRS=0.0173
XXI2/XM12@11 XI2/net4#139 BGAP_REF#33 XI2/COM#155 XI2/COM VDDA GNDA NE3I_6	L=2e-06	W=1e-05
+ AD=4.8e-12	AS=4.8e-12	PD=2.096e-05	PS=2.096e-05
+ NRD=0.0173	NRS=0.0173
XXI2/XM24@8 XI2/net6#108 RES_BIAS#23 XI2/COM#141 XI2/COM VDDA GNDA NE3I_6	L=2e-06	W=1e-05
+ AD=4.8e-12	AS=4.8e-12	PD=2.096e-05	PS=2.096e-05
+ NRD=0.0173	NRS=0.0173
XXI2/XM24@3 XI2/net6#104 RES_BIAS#20 XI2/COM#131 XI2/COM VDDA GNDA NE3I_6	L=2e-06	W=1e-05
+ AD=4.8e-12	AS=4.8e-12	PD=2.096e-05	PS=2.096e-05
+ NRD=0.0173	NRS=0.0173
XXI2/XM12@9 XI2/net4#122 BGAP_REF#24 XI2/COM#117 XI2/COM VDDA GNDA NE3I_6	L=2e-06	W=1e-05
+ AD=4.8e-12	AS=4.8e-12	PD=2.096e-05	PS=2.096e-05
+ NRD=0.0173	NRS=0.0173
XXI2/XM12 XI2/net4#126 BGAP_REF#27 XI2/COM#127 XI2/COM VDDA GNDA NE3I_6	L=2e-06	W=1e-05
+ AD=4.8e-12	AS=4.8e-12	PD=2.096e-05	PS=2.096e-05
+ NRD=0.0173	NRS=0.0173
XXI2/XM24@10 XI2/net6#100 RES_BIAS#17 XI2/COM#113 XI2/COM VDDA GNDA NE3I_6	L=2e-06	W=1e-05
+ AD=4.8e-12	AS=4.8e-12	PD=2.096e-05	PS=2.096e-05
+ NRD=0.0173	NRS=0.0173
XXI2/XM24@5 XI2/net6#81 RES_BIAS#14 XI2/COM#103 XI2/COM VDDA GNDA NE3I_6	L=2e-06	W=1e-05
+ AD=4.8e-12	AS=4.8e-12	PD=2.096e-05	PS=2.096e-05
+ NRD=0.0173	NRS=0.0173
XXI2/XM12@12 XI2/net4#109 BGAP_REF#18 XI2/COM#89 XI2/COM VDDA GNDA NE3I_6	L=2e-06	W=1e-05
+ AD=4.8e-12	AS=4.8e-12	PD=2.096e-05	PS=2.096e-05
+ NRD=0.0173	NRS=0.0173
XXI2/XM12@3 XI2/net4#113 BGAP_REF#21 XI2/COM#99 XI2/COM VDDA GNDA NE3I_6	L=2e-06	W=1e-05
+ AD=4.8e-12	AS=4.8e-12	PD=2.096e-05	PS=2.096e-05
+ NRD=0.0173	NRS=0.0173
XXI2/XM24@4 XI2/net6#77 RES_BIAS#11 XI2/COM#85 XI2/COM VDDA GNDA NE3I_6	L=2e-06	W=1e-05
+ AD=4.8e-12	AS=4.8e-12	PD=2.096e-05	PS=2.096e-05
+ NRD=0.0173	NRS=0.0173
XXI2/XM24@9 XI2/net6#73 RES_BIAS#8 XI2/COM#75 XI2/COM VDDA GNDA NE3I_6	L=2e-06	W=1e-05
+ AD=4.8e-12	AS=4.8e-12	PD=2.096e-05	PS=2.096e-05
+ NRD=0.0173	NRS=0.0173
XXI2/XM12@6 XI2/net4#101 BGAP_REF#12 XI2/COM#61 XI2/COM VDDA GNDA NE3I_6	L=2e-06	W=1e-05
+ AD=4.8e-12	AS=4.8e-12	PD=2.096e-05	PS=2.096e-05
+ NRD=0.0173	NRS=0.0173
XXI2/XM12@5 XI2/net4#105 BGAP_REF#15 XI2/COM#71 XI2/COM VDDA GNDA NE3I_6	L=2e-06	W=1e-05
+ AD=4.8e-12	AS=4.8e-12	PD=2.096e-05	PS=2.096e-05
+ NRD=0.0173	NRS=0.0173
XXI2/XM24@6 XI2/net6#69 RES_BIAS#5 XI2/COM#57 XI2/COM VDDA GNDA NE3I_6	L=2e-06	W=1e-05
+ AD=4.8e-12	AS=4.8e-12	PD=2.096e-05	PS=2.096e-05
+ NRD=0.0173	NRS=0.0173
XXI2/XM24@12 XI2/net6#65 RES_BIAS#2 XI2/COM#47 XI2/COM VDDA GNDA NE3I_6	L=2e-06	W=1e-05
+ AD=4.8e-12	AS=4.8e-12	PD=2.096e-05	PS=2.096e-05
+ NRD=0.0173	NRS=0.0173
XXI2/XM7@2 XI2/COM#33 XI2/COM#5 XI2/COM#17 XI2/COM VDDA GNDA NE3I_6	L=2e-06
+ W=1e-05
+ AD=4.8e-12	AS=4.8e-12	PD=2.096e-05	PS=2.096e-05
+ NRD=0.0173	NRS=0.0173
XXI2/XM12@4 XI2/net4#97 BGAP_REF#9 XI2/COM#43 XI2/COM VDDA GNDA NE3I_6	L=2e-06	W=1e-05
+ AD=4.8e-12	AS=4.8e-12	PD=2.096e-05	PS=2.096e-05
+ NRD=0.0173	NRS=0.0173
XXI2/XM7 XI2/COM#29 XI2/COM#2 XI2/COM#13 XI2/COM VDDA GNDA NE3I_6	L=2e-06
+ W=1e-05
+ AD=4.8e-12	AS=4.8e-12	PD=2.096e-05	PS=2.096e-05
+ NRD=0.0173	NRS=0.0173
*
*       TRANSISTOR CARDS
*
*
MXI1/MM0@1	XI1/net24#69	XI1/net1#13	XI1/net23	GNDA	ne3
+ L=2.5e-06	W=1e-05
+ AD=2.7e-12	AS=4.8e-12	PD=1.054e-05	PS=2.096e-05
+ NRD=0.0173	NRS=0.0173
MXI1/MM0	XI1/net24#69	XI1/net1#16	XI1/net23#6	GNDA	ne3
+ L=2.5e-06	W=1e-05
+ AD=2.7e-12	AS=4.8e-12	PD=1.054e-05	PS=2.096e-05
+ NRD=0.0173	NRS=0.0173
MXI1/MM1@1	XI1/net1#35	XI1/net1#7	XI1/net13#40	GNDA	ne3
+ L=2.5e-06	W=1e-05
+ AD=2.7e-12	AS=4.8e-12	PD=1.054e-05	PS=2.096e-05
+ NRD=0.0173	NRS=0.0173
MXI1/MM1	XI1/net1#35	XI1/net1#10	XI1/net13#45	GNDA	ne3
+ L=2.5e-06	W=1e-05
+ AD=2.7e-12	AS=4.8e-12	PD=1.054e-05	PS=2.096e-05
+ NRD=0.0173	NRS=0.0173
MXI0/MM24	VDDA#655	VDDA#89	XI0/net22#12	GNDA	ne3
+ L=2e-06	W=1e-06
+ AD=4.8e-13	AS=4.8e-13	PD=2.96e-06	PS=2.96e-06
+ NRD=0.173	NRS=0.173
MXI0/MM23	XI0/net22#4	XI0/net22#2	XI0/net21#23	GNDA	ne3
+ L=2e-06	W=1e-06
+ AD=4.8e-13	AS=4.8e-13	PD=2.96e-06	PS=2.96e-06
+ NRD=0.173	NRS=0.173
MXI0/MM25	XI0/net21#13	XI0/net21#5	GNDA#612	GNDA	ne3
+ L=2e-06	W=1e-06
+ AD=4.8e-13	AS=4.8e-13	PD=2.96e-06	PS=2.96e-06
+ NRD=0.173	NRS=0.173
MXI0/MM17	XI0/net12#15	XI0/net21#2	XI0/net7#13	GNDA	ne3
+ L=1e-06	W=1e-05
+ AD=4.8e-12	AS=4.8e-12	PD=2.096e-05	PS=2.096e-05
+ NRD=0.0173	NRS=0.0173
MXI0/MM16	XI0/net10#26	BGAP_REF#2	XI0/net7#8	GNDA	ne3
+ L=1e-06	W=1e-05
+ AD=4.8e-12	AS=4.8e-12	PD=2.096e-05	PS=2.096e-05
+ NRD=0.0173	NRS=0.0173
MXI0/MM26@1	GNDA#148	GNDA#10	GNDA#138	GNDA	ne3
+ L=1e-06	W=1e-05
+ AD=4.8e-12	AS=4.8e-12	PD=2.096e-05	PS=2.096e-05
+ NRD=0.0173	NRS=0.0173
MXI0/MM26@2	GNDA#155	GNDA#13	GNDA#143	GNDA	ne3
+ L=1e-06	W=1e-05
+ AD=4.8e-12	AS=4.8e-12	PD=2.096e-05	PS=2.096e-05
+ NRD=0.0173	NRS=0.0173
MXI0/MM8@2	XI0/net2#28	XI0/net6#26	GNDA#128	GNDA	ne3
+ L=1e-06	W=1e-05
+ AD=4.8e-12	AS=4.8e-12	PD=2.096e-05	PS=2.096e-05
+ NRD=0.0173	NRS=0.0173
MXI0/MM7@1	XI0/net6#98	XI0/net6#29	GNDA#133	GNDA	ne3
+ L=1e-06	W=1e-05
+ AD=4.8e-12	AS=4.8e-12	PD=2.096e-05	PS=2.096e-05
+ NRD=0.0173	NRS=0.0173
MXI0/MM7@2	XI0/net6#86	XI0/net6#20	GNDA#118	GNDA	ne3
+ L=1e-06	W=1e-05
+ AD=4.8e-12	AS=4.8e-12	PD=2.096e-05	PS=2.096e-05
+ NRD=0.0173	NRS=0.0173
MXI0/MM8@1	XI0/net2#18	XI0/net6#23	GNDA#123	GNDA	ne3
+ L=1e-06	W=1e-05
+ AD=4.8e-12	AS=4.8e-12	PD=2.096e-05	PS=2.096e-05
+ NRD=0.0173	NRS=0.0173
MXI0/MM14	XI0/net1#3	XI0/net6#14	GNDA#108	GNDA	ne3
+ L=1e-06	W=1e-05
+ AD=4.8e-12	AS=4.8e-12	PD=2.096e-05	PS=2.096e-05
+ NRD=0.0173	NRS=0.0173
MXI0/MM15	XI0/net7#3	XI0/net6#17	GNDA#113	GNDA	ne3
+ L=1e-06	W=1e-05
+ AD=4.8e-12	AS=4.8e-12	PD=2.096e-05	PS=2.096e-05
+ NRD=0.0173	NRS=0.0173
MXI0/MM8@3	XI0/net2#8	XI0/net6#8	GNDA#98	GNDA	ne3
+ L=1e-06	W=1e-05
+ AD=4.8e-12	AS=4.8e-12	PD=2.096e-05	PS=2.096e-05
+ NRD=0.0173	NRS=0.0173
MXI0/MM7	XI0/net6#67	XI0/net6#11	GNDA#103	GNDA	ne3
+ L=1e-06	W=1e-05
+ AD=4.8e-12	AS=4.8e-12	PD=2.096e-05	PS=2.096e-05
+ NRD=0.0173	NRS=0.0173
MXI0/MM7@3	XI0/net6#55	XI0/net6#2	GNDA#88	GNDA	ne3
+ L=1e-06	W=1e-05
+ AD=4.8e-12	AS=4.8e-12	PD=2.096e-05	PS=2.096e-05
+ NRD=0.0173	NRS=0.0173
MXI0/MM8	XI0/net2#3	XI0/net6#5	GNDA#93	GNDA	ne3
+ L=1e-06	W=1e-05
+ AD=4.8e-12	AS=4.8e-12	PD=2.096e-05	PS=2.096e-05
+ NRD=0.0173	NRS=0.0173
MXI0/MM26	GNDA#78	GNDA#4	GNDA#64	GNDA	ne3	L=1e-06
+ W=1e-05
+ AD=4.8e-12	AS=4.8e-12	PD=2.096e-05	PS=2.096e-05
+ NRD=0.0173	NRS=0.0173
MXI0/MM26@3	GNDA#83	GNDA#7	GNDA#71	GNDA	ne3	L=1e-06
+ W=1e-05
+ AD=4.8e-12	AS=4.8e-12	PD=2.096e-05	PS=2.096e-05
+ NRD=0.0173	NRS=0.0173
MXI0/MM13@1	BGAP_REF#133	XI0/net17#2	GNDA#614	GNDA	ne3
+ L=1e-06	W=1e-05
+ AD=2.7e-12	AS=4.8e-12	PD=1.054e-05	PS=2.096e-05
+ NRD=0.0173	NRS=0.0173
MXI0/MM13	BGAP_REF#133	XI0/net17#5	GNDA#307	GNDA	ne3
+ L=1e-06	W=1e-05
+ AD=2.7e-12	AS=2.7e-12	PD=1.054e-05	PS=1.054e-05
+ NRD=0.0173	NRS=0.0173
MXI0/MM13@3	BGAP_REF#145	XI0/net17#8	GNDA#307	GNDA	ne3
+ L=1e-06	W=1e-05
+ AD=2.7e-12	AS=2.7e-12	PD=1.054e-05	PS=1.054e-05
+ NRD=0.0173	NRS=0.0173
MXI0/MM13@2	BGAP_REF#145	XI0/net17#11	GNDA#327	GNDA	ne3
+ L=1e-06	W=1e-05
+ AD=2.7e-12	AS=4.8e-12	PD=1.054e-05	PS=2.096e-05
+ NRD=0.0173	NRS=0.0173
MXI0/MM11@1	XI0/net3#57	net1#14	XI0/net2#13	GNDA	ne3
+ L=1e-06	W=1e-05
+ AD=2.7e-12	AS=4.8e-12	PD=1.054e-05	PS=2.096e-05
+ NRD=0.0173	NRS=0.0173
MXI0/MM11@3	XI0/net3#57	net1#17	XI0/net2#23	GNDA	ne3
+ L=1e-06	W=1e-05
+ AD=2.7e-12	AS=2.7e-12	PD=1.054e-05	PS=1.054e-05
+ NRD=0.0173	NRS=0.0173
MXI0/MM11	XI0/net3#74	net1#20	XI0/net2#23	GNDA	ne3
+ L=1e-06	W=1e-05
+ AD=2.7e-12	AS=2.7e-12	PD=1.054e-05	PS=1.054e-05
+ NRD=0.0173	NRS=0.0173
MXI0/MM11@2	XI0/net3#74	net1#23	XI0/net2#33	GNDA	ne3
+ L=1e-06	W=1e-05
+ AD=2.7e-12	AS=4.8e-12	PD=1.054e-05	PS=2.096e-05
+ NRD=0.0173	NRS=0.0173
MXI0/MM9@2	net1#37	net1#2	XI0/net6#33	GNDA	ne3	L=1e-06
+ W=1e-05
+ AD=2.7e-12	AS=4.8e-12	PD=1.054e-05	PS=2.096e-05
+ NRD=0.0173	NRS=0.0173
MXI0/MM9@3	net1#37	net1#5	XI0/net6#38	GNDA	ne3	L=1e-06
+ W=1e-05
+ AD=2.7e-12	AS=2.7e-12	PD=1.054e-05	PS=1.054e-05
+ NRD=0.0173	NRS=0.0173
MXI0/MM9	net1#52	net1#8	XI0/net6#38	GNDA	ne3	L=1e-06
+ W=1e-05
+ AD=2.7e-12	AS=2.7e-12	PD=1.054e-05	PS=1.054e-05
+ NRD=0.0173	NRS=0.0173
MXI0/MM9@1	net1#52	net1#11	XI0/net6#50	GNDA	ne3
+ L=1e-06	W=1e-05
+ AD=2.7e-12	AS=4.8e-12	PD=1.054e-05	PS=2.096e-05
+ NRD=0.0173	NRS=0.0173
MXI2/MM10	GNDA#331	GNDA#22	GNDA#310	GNDA	ne3
+ L=5e-06	W=1e-05
+ AD=4.8e-12	AS=4.8e-12	PD=2.096e-05	PS=2.096e-05
+ NRD=0.0173	NRS=0.0173
MXI2/MM10@4	GNDA#340	GNDA#25	GNDA#317	GNDA	ne3
+ L=5e-06	W=1e-05
+ AD=4.8e-12	AS=4.8e-12	PD=2.096e-05	PS=2.096e-05
+ NRD=0.0173	NRS=0.0173
MXI0/MM4@4	XI0/net15#210	XI0/net15#44	GNDA#290	GNDA	ne3
+ L=5e-06	W=1e-05
+ AD=4.8e-12	AS=4.8e-12	PD=2.096e-05	PS=2.096e-05
+ NRD=0.0173	NRS=0.0173
MXI0/MM2@6	XI0/net17#120	XI0/net15#47	GNDA#297	GNDA	ne3
+ L=5e-06	W=1e-05
+ AD=4.8e-12	AS=4.8e-12	PD=2.096e-05	PS=2.096e-05
+ NRD=0.0173	NRS=0.0173
MXI0/MM2@3	XI0/net17#90	XI0/net15#38	GNDA#276	GNDA	ne3
+ L=5e-06	W=1e-05
+ AD=4.8e-12	AS=4.8e-12	PD=2.096e-05	PS=2.096e-05
+ NRD=0.0173	NRS=0.0173
MXI0/MM4	XI0/net15#189	XI0/net15#41	GNDA#283	GNDA	ne3
+ L=5e-06	W=1e-05
+ AD=4.8e-12	AS=4.8e-12	PD=2.096e-05	PS=2.096e-05
+ NRD=0.0173	NRS=0.0173
MXI0/MM4@5	XI0/net15#168	XI0/net15#32	GNDA#262	GNDA	ne3
+ L=5e-06	W=1e-05
+ AD=4.8e-12	AS=4.8e-12	PD=2.096e-05	PS=2.096e-05
+ NRD=0.0173	NRS=0.0173
MXI0/MM2@5	XI0/net17#78	XI0/net15#35	GNDA#269	GNDA	ne3
+ L=5e-06	W=1e-05
+ AD=4.8e-12	AS=4.8e-12	PD=2.096e-05	PS=2.096e-05
+ NRD=0.0173	NRS=0.0173
MXI0/MM2@1	XI0/net17#66	XI0/net15#26	GNDA#248	GNDA	ne3
+ L=5e-06	W=1e-05
+ AD=4.8e-12	AS=4.8e-12	PD=2.096e-05	PS=2.096e-05
+ NRD=0.0173	NRS=0.0173
MXI0/MM4@3	XI0/net15#147	XI0/net15#29	GNDA#255	GNDA	ne3
+ L=5e-06	W=1e-05
+ AD=4.8e-12	AS=4.8e-12	PD=2.096e-05	PS=2.096e-05
+ NRD=0.0173	NRS=0.0173
MXI0/MM4@1	XI0/net15#126	XI0/net15#20	GNDA#234	GNDA	ne3
+ L=5e-06	W=1e-05
+ AD=4.8e-12	AS=4.8e-12	PD=2.096e-05	PS=2.096e-05
+ NRD=0.0173	NRS=0.0173
MXI0/MM2@4	XI0/net17#54	XI0/net15#23	GNDA#241	GNDA	ne3
+ L=5e-06	W=1e-05
+ AD=4.8e-12	AS=4.8e-12	PD=2.096e-05	PS=2.096e-05
+ NRD=0.0173	NRS=0.0173
MXI0/MM2	XI0/net17#42	XI0/net15#14	GNDA#220	GNDA	ne3
+ L=5e-06	W=1e-05
+ AD=4.8e-12	AS=4.8e-12	PD=2.096e-05	PS=2.096e-05
+ NRD=0.0173	NRS=0.0173
MXI0/MM4@6	XI0/net15#105	XI0/net15#17	GNDA#227	GNDA	ne3
+ L=5e-06	W=1e-05
+ AD=4.8e-12	AS=4.8e-12	PD=2.096e-05	PS=2.096e-05
+ NRD=0.0173	NRS=0.0173
MXI0/MM4@7	XI0/net15#84	XI0/net15#8	GNDA#206	GNDA	ne3
+ L=5e-06	W=1e-05
+ AD=4.8e-12	AS=4.8e-12	PD=2.096e-05	PS=2.096e-05
+ NRD=0.0173	NRS=0.0173
MXI0/MM2@2	XI0/net17#30	XI0/net15#11	GNDA#213	GNDA	ne3
+ L=5e-06	W=1e-05
+ AD=4.8e-12	AS=4.8e-12	PD=2.096e-05	PS=2.096e-05
+ NRD=0.0173	NRS=0.0173
MXI0/MM2@7	XI0/net17#18	XI0/net15#2	GNDA#192	GNDA	ne3
+ L=5e-06	W=1e-05
+ AD=4.8e-12	AS=4.8e-12	PD=2.096e-05	PS=2.096e-05
+ NRD=0.0173	NRS=0.0173
MXI0/MM4@2	XI0/net15#63	XI0/net15#5	GNDA#199	GNDA	ne3
+ L=5e-06	W=1e-05
+ AD=4.8e-12	AS=4.8e-12	PD=2.096e-05	PS=2.096e-05
+ NRD=0.0173	NRS=0.0173
MXI0/MM29@2	GNDA#178	GNDA#16	GNDA#160	GNDA	ne3
+ L=5e-06	W=1e-05
+ AD=4.8e-12	AS=4.8e-12	PD=2.096e-05	PS=2.096e-05
+ NRD=0.0173	NRS=0.0173
MXI2/MM10@3	GNDA#185	GNDA#19	GNDA#169	GNDA	ne3
+ L=5e-06	W=1e-05
+ AD=4.8e-12	AS=4.8e-12	PD=2.096e-05	PS=2.096e-05
+ NRD=0.0173	NRS=0.0173
MXI2/MM8@3	XI2/COM#166	net2#26	XI2/net5#14	GNDA	ne3
+ L=2e-06	W=1e-05
+ AD=2.7e-12	AS=4.8e-12	PD=1.054e-05	PS=2.096e-05
+ NRD=0.0173	NRS=0.0173
MXI2/MM8@7	XI2/COM#166	net2#29	XI2/net5#20	GNDA	ne3
+ L=2e-06	W=1e-05
+ AD=2.7e-12	AS=2.7e-12	PD=1.054e-05	PS=1.054e-05
+ NRD=0.0173	NRS=0.0173
MXI2/MM8@2	XI2/COM#192	net2#32	XI2/net5#20	GNDA	ne3
+ L=2e-06	W=1e-05
+ AD=2.7e-12	AS=2.7e-12	PD=1.054e-05	PS=1.054e-05
+ NRD=0.0173	NRS=0.0173
MXI2/MM8@1	XI2/COM#192	net2#35	XI2/net5#31	GNDA	ne3
+ L=2e-06	W=1e-05
+ AD=2.7e-12	AS=2.7e-12	PD=1.054e-05	PS=1.054e-05
+ NRD=0.0173	NRS=0.0173
MXI2/MM8@4	XI2/COM#220	net2#38	XI2/net5#31	GNDA	ne3
+ L=2e-06	W=1e-05
+ AD=2.7e-12	AS=2.7e-12	PD=1.054e-05	PS=1.054e-05
+ NRD=0.0173	NRS=0.0173
MXI2/MM8@5	XI2/COM#220	net2#41	XI2/net5#42	GNDA	ne3
+ L=2e-06	W=1e-05
+ AD=2.7e-12	AS=2.7e-12	PD=1.054e-05	PS=1.054e-05
+ NRD=0.0173	NRS=0.0173
MXI2/MM8	XI2/COM#246	net2#44	XI2/net5#42	GNDA	ne3
+ L=2e-06	W=1e-05
+ AD=2.7e-12	AS=2.7e-12	PD=1.054e-05	PS=1.054e-05
+ NRD=0.0173	NRS=0.0173
MXI2/MM8@6	XI2/COM#246	net2#47	XI2/net5#48	GNDA	ne3
+ L=2e-06	W=1e-05
+ AD=2.7e-12	AS=4.8e-12	PD=1.054e-05	PS=2.096e-05
+ NRD=0.0173	NRS=0.0173
MXI2/MM9@6	net2#62	net2#2	XI2/net123#31	GNDA	ne3	L=2e-06
+ W=1e-05
+ AD=2.7e-12	AS=4.8e-12	PD=1.054e-05	PS=2.096e-05
+ NRD=0.0173	NRS=0.0173
MXI2/MM9@1	net2#62	net2#5	XI2/net123#37	GNDA	ne3	L=2e-06
+ W=1e-05
+ AD=2.7e-12	AS=2.7e-12	PD=1.054e-05	PS=1.054e-05
+ NRD=0.0173	NRS=0.0173
MXI2/MM9@2	net2#78	net2#8	XI2/net123#37	GNDA	ne3	L=2e-06
+ W=1e-05
+ AD=2.7e-12	AS=2.7e-12	PD=1.054e-05	PS=1.054e-05
+ NRD=0.0173	NRS=0.0173
MXI2/MM9@4	net2#78	net2#11	XI2/net123#43	GNDA	ne3
+ L=2e-06	W=1e-05
+ AD=2.7e-12	AS=2.7e-12	PD=1.054e-05	PS=1.054e-05
+ NRD=0.0173	NRS=0.0173
MXI2/MM9@7	net2#94	net2#14	XI2/net123#43	GNDA	ne3
+ L=2e-06	W=1e-05
+ AD=2.7e-12	AS=2.7e-12	PD=1.054e-05	PS=1.054e-05
+ NRD=0.0173	NRS=0.0173
MXI2/MM9	net2#94	net2#17	XI2/net123#64	GNDA	ne3
+ L=2e-06	W=1e-05
+ AD=2.7e-12	AS=2.7e-12	PD=1.054e-05	PS=1.054e-05
+ NRD=0.0173	NRS=0.0173
MXI2/MM9@5	net2#110	net2#20	XI2/net123#64	GNDA	ne3
+ L=2e-06	W=1e-05
+ AD=2.7e-12	AS=2.7e-12	PD=1.054e-05	PS=1.054e-05
+ NRD=0.0173	NRS=0.0173
MXI2/MM9@3	net2#110	net2#23	XI2/net123#85	GNDA	ne3
+ L=2e-06	W=1e-05
+ AD=2.7e-12	AS=4.8e-12	PD=1.054e-05	PS=2.096e-05
+ NRD=0.0173	NRS=0.0173
MXI0/MM29@1	GNDA#460	GNDA#37	GNDA#440	GNDA	ne3
+ L=5e-06	W=1e-05
+ AD=4.8e-12	AS=4.8e-12	PD=2.096e-05	PS=2.096e-05
+ NRD=0.0173	NRS=0.0173
MXI0/MM29@3	GNDA#465	GNDA#40	GNDA#445	GNDA	ne3
+ L=5e-06	W=1e-05
+ AD=4.8e-12	AS=4.8e-12	PD=2.096e-05	PS=2.096e-05
+ NRD=0.0173	NRS=0.0173
MXI2/MM10@2	GNDA#435	GNDA#34	GNDA#420	GNDA	ne3
+ L=5e-06	W=1e-05
+ AD=4.8e-12	AS=4.8e-12	PD=2.096e-05	PS=2.096e-05
+ NRD=0.0173	NRS=0.0173
MXI2/MM25	XI2/net5#36	XI2/net123#26	GNDA#425	GNDA	ne3
+ L=5e-06	W=1e-05
+ AD=4.8e-12	AS=4.8e-12	PD=2.096e-05	PS=2.096e-05
+ NRD=0.0173	NRS=0.0173
MXI2/MM25@1	XI2/net5#25	XI2/net123#20	GNDA#410	GNDA	ne3
+ L=5e-06	W=1e-05
+ AD=4.8e-12	AS=4.8e-12	PD=2.096e-05	PS=2.096e-05
+ NRD=0.0173	NRS=0.0173
MXI2/MM13@3	XI2/net123#115	XI2/net123#23	GNDA#415	GNDA	ne3
+ L=5e-06	W=1e-05
+ AD=4.8e-12	AS=4.8e-12	PD=2.096e-05	PS=2.096e-05
+ NRD=0.0173	NRS=0.0173
MXI2/MM13	XI2/net123#100	XI2/net123#14	GNDA#400	GNDA	ne3
+ L=5e-06	W=1e-05
+ AD=4.8e-12	AS=4.8e-12	PD=2.096e-05	PS=2.096e-05
+ NRD=0.0173	NRS=0.0173
MXI2/MM26	XI2/net7#105	XI2/net123#17	GNDA#405	GNDA	ne3
+ L=5e-06	W=1e-05
+ AD=4.8e-12	AS=4.8e-12	PD=2.096e-05	PS=2.096e-05
+ NRD=0.0173	NRS=0.0173
MXI2/MM25@2	XI2/net5#8	XI2/net123#8	GNDA#390	GNDA	ne3
+ L=5e-06	W=1e-05
+ AD=4.8e-12	AS=4.8e-12	PD=2.096e-05	PS=2.096e-05
+ NRD=0.0173	NRS=0.0173
MXI2/MM13@2	XI2/net123#79	XI2/net123#11	GNDA#395	GNDA	ne3
+ L=5e-06	W=1e-05
+ AD=4.8e-12	AS=4.8e-12	PD=2.096e-05	PS=2.096e-05
+ NRD=0.0173	NRS=0.0173
MXI2/MM13@1	XI2/net123#58	XI2/net123#2	GNDA#380	GNDA	ne3
+ L=5e-06	W=1e-05
+ AD=4.8e-12	AS=4.8e-12	PD=2.096e-05	PS=2.096e-05
+ NRD=0.0173	NRS=0.0173
MXI2/MM25@3	XI2/net5#3	XI2/net123#5	GNDA#385	GNDA	ne3
+ L=5e-06	W=1e-05
+ AD=4.8e-12	AS=4.8e-12	PD=2.096e-05	PS=2.096e-05
+ NRD=0.0173	NRS=0.0173
MXI2/MM10@1	GNDA#370	GNDA#28	GNDA#350	GNDA	ne3
+ L=5e-06	W=1e-05
+ AD=4.8e-12	AS=4.8e-12	PD=2.096e-05	PS=2.096e-05
+ NRD=0.0173	NRS=0.0173
MXI0/MM29	GNDA#375	GNDA#31	GNDA#355	GNDA	ne3
+ L=5e-06	W=1e-05
+ AD=4.8e-12	AS=4.8e-12	PD=2.096e-05	PS=2.096e-05
+ NRD=0.0173	NRS=0.0173
MXI1/MM17@2	VDDA#317	VDDA#11	VDDA#305	VDDA	pe3
+ L=2.5e-06	W=1e-05
+ AD=4.8e-12	AS=4.8e-12	PD=2.096e-05	PS=2.096e-05
+ NRD=0.0173	NRS=0.0173
MXI1/MM17@1	VDDA#324	VDDA#14	VDDA#310	VDDA	pe3
+ L=2.5e-06	W=1e-05
+ AD=4.8e-12	AS=4.8e-12	PD=2.096e-05	PS=2.096e-05
+ NRD=0.0173	NRS=0.0173
MXI1/MM16	XI1/net47	XI1/net17#26	VDDA#288	VDDA	pe3
+ L=2.5e-06	W=1e-05
+ AD=4.8e-12	AS=4.8e-12	PD=2.096e-05	PS=2.096e-05
+ NRD=0.0173	NRS=0.0173
MXI1/MM17@4	VDDA#298	VDDA#8	VDDA#293	VDDA	pe3
+ L=2.5e-06	W=1e-05
+ AD=4.8e-12	AS=4.8e-12	PD=2.096e-05	PS=2.096e-05
+ NRD=0.0173	NRS=0.0173
MXI1/MM6	XI1/net30#6	XI1/net17#20	VDDA#278	VDDA	pe3
+ L=2.5e-06	W=1e-05
+ AD=4.8e-12	AS=4.8e-12	PD=2.096e-05	PS=2.096e-05
+ NRD=0.0173	NRS=0.0173
MXI1/MM6@1	XI1/net30#11	XI1/net17#23	VDDA#283	VDDA	pe3
+ L=2.5e-06	W=1e-05
+ AD=4.8e-12	AS=4.8e-12	PD=2.096e-05	PS=2.096e-05
+ NRD=0.0173	NRS=0.0173
MXI1/MM12@1	XI1/net17#77	XI1/net17#14	VDDA#268	VDDA	pe3
+ L=2.5e-06	W=1e-05
+ AD=4.8e-12	AS=4.8e-12	PD=2.096e-05	PS=2.096e-05
+ NRD=0.0173	NRS=0.0173
MXI1/MM9@1	XI1/net18#16	XI1/net17#17	VDDA#273	VDDA	pe3
+ L=2.5e-06	W=1e-05
+ AD=4.8e-12	AS=4.8e-12	PD=2.096e-05	PS=2.096e-05
+ NRD=0.0173	NRS=0.0173
MXI1/MM9	XI1/net18#11	XI1/net17#8	VDDA#251	VDDA	pe3
+ L=2.5e-06	W=1e-05
+ AD=4.8e-12	AS=4.8e-12	PD=2.096e-05	PS=2.096e-05
+ NRD=0.0173	NRS=0.0173
MXI1/MM12	XI1/net17#61	XI1/net17#11	VDDA#256	VDDA	pe3
+ L=2.5e-06	W=1e-05
+ AD=4.8e-12	AS=4.8e-12	PD=2.096e-05	PS=2.096e-05
+ NRD=0.0173	NRS=0.0173
MXI1/MM13@1	XI1/net40	XI1/net17#2	VDDA#241	VDDA	pe3
+ L=2.5e-06	W=1e-05
+ AD=4.8e-12	AS=4.8e-12	PD=2.096e-05	PS=2.096e-05
+ NRD=0.0173	NRS=0.0173
MXI1/MM13	XI1/net40#6	XI1/net17#5	VDDA#246	VDDA	pe3
+ L=2.5e-06	W=1e-05
+ AD=4.8e-12	AS=4.8e-12	PD=2.096e-05	PS=2.096e-05
+ NRD=0.0173	NRS=0.0173
MXI1/MM17	VDDA#231	VDDA#2	VDDA#217	VDDA	pe3
+ L=2.5e-06	W=1e-05
+ AD=4.8e-12	AS=4.8e-12	PD=2.096e-05	PS=2.096e-05
+ NRD=0.0173	NRS=0.0173
MXI1/MM17@3	VDDA#236	VDDA#5	VDDA#224	VDDA	pe3
+ L=2.5e-06	W=1e-05
+ AD=4.8e-12	AS=4.8e-12	PD=2.096e-05	PS=2.096e-05
+ NRD=0.0173	NRS=0.0173
MXI1/MM15	BIAS3#1	XI1/net24#26	XI1/net47#6	VDDA	pe3
+ L=2.5e-06	W=1e-05
+ AD=4.8e-12	AS=4.8e-12	PD=2.096e-05	PS=2.096e-05
+ NRD=0.0173	NRS=0.0173
MXI1/MM11	net1#25	XI1/net24#20	XI1/net40#11	VDDA	pe3
+ L=2.5e-06	W=1e-05
+ AD=2.7e-12	AS=4.8e-12	PD=1.054e-05	PS=2.096e-05
+ NRD=0.0173	NRS=0.0173
MXI1/MM11@1	net1#25	XI1/net24#23	XI1/net40#16	VDDA	pe3
+ L=2.5e-06	W=1e-05
+ AD=2.7e-12	AS=4.8e-12	PD=1.054e-05	PS=2.096e-05
+ NRD=0.0173	NRS=0.0173
MXI1/MM7@1	net2#49	XI1/net24#14	XI1/net30	VDDA	pe3
+ L=2.5e-06	W=1e-05
+ AD=2.7e-12	AS=4.8e-12	PD=1.054e-05	PS=2.096e-05
+ NRD=0.0173	NRS=0.0173
MXI1/MM7	net2#49	XI1/net24#17	XI1/net30#16	VDDA	pe3
+ L=2.5e-06	W=1e-05
+ AD=2.7e-12	AS=4.8e-12	PD=1.054e-05	PS=2.096e-05
+ NRD=0.0173	NRS=0.0173
MXI1/MM3@1	XI1/net24#54	XI1/net24#8	XI1/net17#28	VDDA	pe3
+ L=2.5e-06	W=1e-05
+ AD=2.7e-12	AS=4.8e-12	PD=1.054e-05	PS=2.096e-05
+ NRD=0.0173	NRS=0.0173
MXI1/MM3	XI1/net24#54	XI1/net24#11	XI1/net17#43	VDDA	pe3
+ L=2.5e-06	W=1e-05
+ AD=2.7e-12	AS=4.8e-12	PD=1.054e-05	PS=2.096e-05
+ NRD=0.0173	NRS=0.0173
MXI1/MM5@1	XI1/net1#18	XI1/net24#2	XI1/net18	VDDA	pe3
+ L=2.5e-06	W=1e-05
+ AD=2.7e-12	AS=4.8e-12	PD=1.054e-05	PS=2.096e-05
+ NRD=0.0173	NRS=0.0173
MXI1/MM5	XI1/net1#18	XI1/net24#5	XI1/net18#6	VDDA	pe3
+ L=2.5e-06	W=1e-05
+ AD=2.7e-12	AS=4.8e-12	PD=1.054e-05	PS=2.096e-05
+ NRD=0.0173	NRS=0.0173
MXI1/MM14	XI1/net2#18	XI1/net2#3	XI1/net24#40	XI1/net24
+ pe3	L=1e-05	W=2e-06
+ AD=9.6e-13	AS=9.6e-13	PD=4.96e-06	PS=4.96e-06
+ NRD=0.0865	NRS=0.0865
MXI1/MM8	XI1/net1#27	XI1/net1#3	XI1/net2#15	XI1/net2
+ pe3	L=1e-05	W=2e-06
+ AD=9.6e-13	AS=9.6e-13	PD=4.96e-06	PS=4.96e-06
+ NRD=0.0865	NRS=0.0865
MXI0/MM27@3	VDDA#552	VDDA#59	VDDA#542	VDDA	pe3
+ L=1e-06	W=1e-05
+ AD=4.8e-12	AS=4.8e-12	PD=2.096e-05	PS=2.096e-05
+ NRD=0.0173	NRS=0.0173
MXI0/MM27	VDDA#559	VDDA#62	VDDA#547	VDDA	pe3
+ L=1e-06	W=1e-05
+ AD=4.8e-12	AS=4.8e-12	PD=2.096e-05	PS=2.096e-05
+ NRD=0.0173	NRS=0.0173
MXI0/MM12@6	BGAP_REF#122	XI0/net16#68	VDDA#532	VDDA	pe3
+ L=1e-06	W=1e-05
+ AD=4.8e-12	AS=4.8e-12	PD=2.096e-05	PS=2.096e-05
+ NRD=0.0173	NRS=0.0173
MXI0/MM12@12	BGAP_REF#127	XI0/net16#71	VDDA#537	VDDA	pe3
+ L=1e-06	W=1e-05
+ AD=4.8e-12	AS=4.8e-12	PD=2.096e-05	PS=2.096e-05
+ NRD=0.0173	NRS=0.0173
MXI0/MM12@13	BGAP_REF#112	XI0/net16#62	VDDA#522	VDDA	pe3
+ L=1e-06	W=1e-05
+ AD=4.8e-12	AS=4.8e-12	PD=2.096e-05	PS=2.096e-05
+ NRD=0.0173	NRS=0.0173
MXI0/MM12@8	BGAP_REF#117	XI0/net16#65	VDDA#527	VDDA	pe3
+ L=1e-06	W=1e-05
+ AD=4.8e-12	AS=4.8e-12	PD=2.096e-05	PS=2.096e-05
+ NRD=0.0173	NRS=0.0173
MXI0/MM10@1	XI0/net14#33	XI0/net16#56	VDDA#512	VDDA	pe3
+ L=1e-06	W=1e-05
+ AD=4.8e-12	AS=4.8e-12	PD=2.096e-05	PS=2.096e-05
+ NRD=0.0173	NRS=0.0173
MXI0/MM0@1	XI0/net16#195	XI0/net16#59	VDDA#517	VDDA	pe3
+ L=1e-06	W=1e-05
+ AD=4.8e-12	AS=4.8e-12	PD=2.096e-05	PS=2.096e-05
+ NRD=0.0173	NRS=0.0173
MXI0/MM12@3	BGAP_REF#102	XI0/net16#50	VDDA#502	VDDA	pe3
+ L=1e-06	W=1e-05
+ AD=4.8e-12	AS=4.8e-12	PD=2.096e-05	PS=2.096e-05
+ NRD=0.0173	NRS=0.0173
MXI0/MM12@11	BGAP_REF#107	XI0/net16#53	VDDA#507	VDDA	pe3
+ L=1e-06	W=1e-05
+ AD=4.8e-12	AS=4.8e-12	PD=2.096e-05	PS=2.096e-05
+ NRD=0.0173	NRS=0.0173
MXI0/MM12	BGAP_REF#92	XI0/net16#44	VDDA#492	VDDA	pe3
+ L=1e-06	W=1e-05
+ AD=4.8e-12	AS=4.8e-12	PD=2.096e-05	PS=2.096e-05
+ NRD=0.0173	NRS=0.0173
MXI0/MM12@14	BGAP_REF#97	XI0/net16#47	VDDA#497	VDDA	pe3
+ L=1e-06	W=1e-05
+ AD=4.8e-12	AS=4.8e-12	PD=2.096e-05	PS=2.096e-05
+ NRD=0.0173	NRS=0.0173
MXI0/MM0@3	XI0/net16#163	XI0/net16#38	VDDA#482	VDDA	pe3
+ L=1e-06	W=1e-05
+ AD=4.8e-12	AS=4.8e-12	PD=2.096e-05	PS=2.096e-05
+ NRD=0.0173	NRS=0.0173
MXI0/MM10@3	XI0/net14#23	XI0/net16#41	VDDA#487	VDDA	pe3
+ L=1e-06	W=1e-05
+ AD=4.8e-12	AS=4.8e-12	PD=2.096e-05	PS=2.096e-05
+ NRD=0.0173	NRS=0.0173
MXI0/MM10	XI0/net14#13	XI0/net16#32	VDDA#458	VDDA	pe3
+ L=1e-06	W=1e-05
+ AD=4.8e-12	AS=4.8e-12	PD=2.096e-05	PS=2.096e-05
+ NRD=0.0173	NRS=0.0173
MXI0/MM0	XI0/net16#149	XI0/net16#35	VDDA#463	VDDA	pe3
+ L=1e-06	W=1e-05
+ AD=4.8e-12	AS=4.8e-12	PD=2.096e-05	PS=2.096e-05
+ NRD=0.0173	NRS=0.0173
MXI0/MM12@10	BGAP_REF#82	XI0/net16#26	VDDA#448	VDDA	pe3
+ L=1e-06	W=1e-05
+ AD=4.8e-12	AS=4.8e-12	PD=2.096e-05	PS=2.096e-05
+ NRD=0.0173	NRS=0.0173
MXI0/MM12@9	BGAP_REF#87	XI0/net16#29	VDDA#453	VDDA	pe3
+ L=1e-06	W=1e-05
+ AD=4.8e-12	AS=4.8e-12	PD=2.096e-05	PS=2.096e-05
+ NRD=0.0173	NRS=0.0173
MXI0/MM12@15	BGAP_REF#72	XI0/net16#20	VDDA#438	VDDA	pe3
+ L=1e-06	W=1e-05
+ AD=4.8e-12	AS=4.8e-12	PD=2.096e-05	PS=2.096e-05
+ NRD=0.0173	NRS=0.0173
MXI0/MM12@4	BGAP_REF#77	XI0/net16#23	VDDA#443	VDDA	pe3
+ L=1e-06	W=1e-05
+ AD=4.8e-12	AS=4.8e-12	PD=2.096e-05	PS=2.096e-05
+ NRD=0.0173	NRS=0.0173
MXI0/MM0@2	XI0/net16#117	XI0/net16#14	VDDA#428	VDDA	pe3
+ L=1e-06	W=1e-05
+ AD=4.8e-12	AS=4.8e-12	PD=2.096e-05	PS=2.096e-05
+ NRD=0.0173	NRS=0.0173
MXI0/MM10@2	XI0/net14#3	XI0/net16#17	VDDA#433	VDDA	pe3
+ L=1e-06	W=1e-05
+ AD=4.8e-12	AS=4.8e-12	PD=2.096e-05	PS=2.096e-05
+ NRD=0.0173	NRS=0.0173
MXI0/MM12@7	BGAP_REF#62	XI0/net16#8	VDDA#418	VDDA	pe3
+ L=1e-06	W=1e-05
+ AD=4.8e-12	AS=4.8e-12	PD=2.096e-05	PS=2.096e-05
+ NRD=0.0173	NRS=0.0173
MXI0/MM12@5	BGAP_REF#67	XI0/net16#11	VDDA#423	VDDA	pe3
+ L=1e-06	W=1e-05
+ AD=4.8e-12	AS=4.8e-12	PD=2.096e-05	PS=2.096e-05
+ NRD=0.0173	NRS=0.0173
MXI0/MM12@1	BGAP_REF#52	XI0/net16#2	VDDA#408	VDDA	pe3
+ L=1e-06	W=1e-05
+ AD=4.8e-12	AS=4.8e-12	PD=2.096e-05	PS=2.096e-05
+ NRD=0.0173	NRS=0.0173
MXI0/MM12@2	BGAP_REF#57	XI0/net16#5	VDDA#413	VDDA	pe3
+ L=1e-06	W=1e-05
+ AD=4.8e-12	AS=4.8e-12	PD=2.096e-05	PS=2.096e-05
+ NRD=0.0173	NRS=0.0173
MXI0/MM27@1	VDDA#398	VDDA#41	VDDA#384	VDDA	pe3
+ L=1e-06	W=1e-05
+ AD=4.8e-12	AS=4.8e-12	PD=2.096e-05	PS=2.096e-05
+ NRD=0.0173	NRS=0.0173
MXI0/MM27@2	VDDA#403	VDDA#44	VDDA#391	VDDA	pe3
+ L=1e-06	W=1e-05
+ AD=4.8e-12	AS=4.8e-12	PD=2.096e-05	PS=2.096e-05
+ NRD=0.0173	NRS=0.0173
MXI0/MM21	XI0/net1#6	XI0/net12#2	XI0/net20#7	VDDA	pe3
+ L=5e-06	W=1e-05
+ AD=4.8e-12	AS=4.8e-12	PD=2.096e-05	PS=2.096e-05
+ NRD=0.0173	NRS=0.0173
MXI0/MM28@3	XI0/A#139	XI0/A#8	XI0/A#129	VDDA	pe3
+ L=5e-06	W=1e-05
+ AD=4.8e-12	AS=4.8e-12	PD=2.096e-05	PS=2.096e-05
+ NRD=0.0173	NRS=0.0173
MXI0/MM28	XI0/A#146	XI0/A#11	XI0/A#134	VDDA	pe3
+ L=5e-06	W=1e-05
+ AD=4.8e-12	AS=4.8e-12	PD=2.096e-05	PS=2.096e-05
+ NRD=0.0173	NRS=0.0173
MXI0/MM5@6	XI0/net17#111	XI0/net11#23	XI0/A#119	VDDA	pe3
+ L=5e-06	W=1e-05
+ AD=4.8e-12	AS=4.8e-12	PD=2.096e-05	PS=2.096e-05
+ NRD=0.0173	NRS=0.0173
MXI0/MM3@3	XI0/net15#198	XI0/net23#23	XI0/A#124	VDDA	pe3
+ L=5e-06	W=1e-05
+ AD=4.8e-12	AS=4.8e-12	PD=2.096e-05	PS=2.096e-05
+ NRD=0.0173	NRS=0.0173
MXI0/MM3@6	XI0/net15#177	XI0/net23#20	XI0/A#109	VDDA	pe3
+ L=5e-06	W=1e-05
+ AD=4.8e-12	AS=4.8e-12	PD=2.096e-05	PS=2.096e-05
+ NRD=0.0173	NRS=0.0173
MXI0/MM5@1	XI0/net17#87	XI0/net11#20	XI0/A#114	VDDA	pe3
+ L=5e-06	W=1e-05
+ AD=4.8e-12	AS=4.8e-12	PD=2.096e-05	PS=2.096e-05
+ NRD=0.0173	NRS=0.0173
MXI0/MM19	XI0/net12#10	XI0/net10#5	VDDA#602	VDDA	pe3
+ L=5e-06	W=1e-05
+ AD=4.8e-12	AS=4.8e-12	PD=2.096e-05	PS=2.096e-05
+ NRD=0.0173	NRS=0.0173
MXI0/MM5@4	XI0/net17#75	XI0/net11#17	XI0/A#99	VDDA	pe3
+ L=5e-06	W=1e-05
+ AD=4.8e-12	AS=4.8e-12	PD=2.096e-05	PS=2.096e-05
+ NRD=0.0173	NRS=0.0173
MXI0/MM3	XI0/net15#156	XI0/net23#17	XI0/A#104	VDDA	pe3
+ L=5e-06	W=1e-05
+ AD=4.8e-12	AS=4.8e-12	PD=2.096e-05	PS=2.096e-05
+ NRD=0.0173	NRS=0.0173
MXI0/MM18	XI0/net10#15	XI0/net10#2	VDDA#597	VDDA	pe3
+ L=5e-06	W=1e-05
+ AD=4.8e-12	AS=4.8e-12	PD=2.096e-05	PS=2.096e-05
+ NRD=0.0173	NRS=0.0173
MXI0/MM3@2	XI0/net15#135	XI0/net23#14	XI0/A#89	VDDA	pe3
+ L=5e-06	W=1e-05
+ AD=4.8e-12	AS=4.8e-12	PD=2.096e-05	PS=2.096e-05
+ NRD=0.0173	NRS=0.0173
MXI0/MM5@5	XI0/net17#63	XI0/net11#14	XI0/A#94	VDDA	pe3
+ L=5e-06	W=1e-05
+ AD=4.8e-12	AS=4.8e-12	PD=2.096e-05	PS=2.096e-05
+ NRD=0.0173	NRS=0.0173
MXI0/MM5@3	XI0/net17#51	XI0/net11#11	XI0/A#79	VDDA	pe3
+ L=5e-06	W=1e-05
+ AD=4.8e-12	AS=4.8e-12	PD=2.096e-05	PS=2.096e-05
+ NRD=0.0173	NRS=0.0173
MXI0/MM3@5	XI0/net15#114	XI0/net23#11	XI0/A#84	VDDA	pe3
+ L=5e-06	W=1e-05
+ AD=4.8e-12	AS=4.8e-12	PD=2.096e-05	PS=2.096e-05
+ NRD=0.0173	NRS=0.0173
MXI0/MM22	XI0/net11#47	XI0/net20#5	VDDA#585	VDDA	pe3
+ L=5e-06	W=1e-05
+ AD=4.8e-12	AS=4.8e-12	PD=2.096e-05	PS=2.096e-05
+ NRD=0.0173	NRS=0.0173
MXI0/MM3@7	XI0/net15#93	XI0/net23#8	XI0/A#69	VDDA	pe3
+ L=5e-06	W=1e-05
+ AD=4.8e-12	AS=4.8e-12	PD=2.096e-05	PS=2.096e-05
+ NRD=0.0173	NRS=0.0173
MXI0/MM5@2	XI0/net17#39	XI0/net11#8	XI0/A#74	VDDA	pe3
+ L=5e-06	W=1e-05
+ AD=4.8e-12	AS=4.8e-12	PD=2.096e-05	PS=2.096e-05
+ NRD=0.0173	NRS=0.0173
MXI0/MM20	XI0/net20#19	XI0/net20#2	VDDA#580	VDDA	pe3
+ L=5e-06	W=1e-05
+ AD=4.8e-12	AS=4.8e-12	PD=2.096e-05	PS=2.096e-05
+ NRD=0.0173	NRS=0.0173
MXI0/MM5@7	XI0/net17#27	XI0/net11#5	XI0/A#59	VDDA	pe3
+ L=5e-06	W=1e-05
+ AD=4.8e-12	AS=4.8e-12	PD=2.096e-05	PS=2.096e-05
+ NRD=0.0173	NRS=0.0173
MXI0/MM3@1	XI0/net15#72	XI0/net23#5	XI0/A#64	VDDA	pe3
+ L=5e-06	W=1e-05
+ AD=4.8e-12	AS=4.8e-12	PD=2.096e-05	PS=2.096e-05
+ NRD=0.0173	NRS=0.0173
MXI0/MM3@4	XI0/net15#51	XI0/net23#2	XI0/A#49	VDDA	pe3
+ L=5e-06	W=1e-05
+ AD=4.8e-12	AS=4.8e-12	PD=2.096e-05	PS=2.096e-05
+ NRD=0.0173	NRS=0.0173
MXI0/MM5	XI0/net17#15	XI0/net11#2	XI0/A#54	VDDA	pe3
+ L=5e-06	W=1e-05
+ AD=4.8e-12	AS=4.8e-12	PD=2.096e-05	PS=2.096e-05
+ NRD=0.0173	NRS=0.0173
MXI0/MM28@2	XI0/A#39	XI0/A#2	XI0/A#25	VDDA	pe3
+ L=5e-06	W=1e-05
+ AD=4.8e-12	AS=4.8e-12	PD=2.096e-05	PS=2.096e-05
+ NRD=0.0173	NRS=0.0173
MXI0/MM28@1	XI0/A#44	XI0/A#5	XI0/A#32	VDDA	pe3
+ L=5e-06	W=1e-05
+ AD=4.8e-12	AS=4.8e-12	PD=2.096e-05	PS=2.096e-05
+ NRD=0.0173	NRS=0.0173
MXI0/MM1@1	XI0/A#15	XI0/net3#14	XI0/net14#8	VDDA	pe3
+ L=1e-06	W=1e-05
+ AD=2.7e-12	AS=4.8e-12	PD=1.054e-05	PS=2.096e-05
+ NRD=0.0173	NRS=0.0173
MXI0/MM1	XI0/A#15	XI0/net3#17	XI0/net14#18	VDDA	pe3
+ L=1e-06	W=1e-05
+ AD=2.7e-12	AS=2.7e-12	PD=1.054e-05	PS=1.054e-05
+ NRD=0.0173	NRS=0.0173
MXI0/MM1@3	XI0/A#20	XI0/net3#20	XI0/net14#18	VDDA	pe3
+ L=1e-06	W=1e-05
+ AD=2.7e-12	AS=2.7e-12	PD=1.054e-05	PS=1.054e-05
+ NRD=0.0173	NRS=0.0173
MXI0/MM1@2	XI0/A#20	XI0/net3#23	XI0/net14#28	VDDA	pe3
+ L=1e-06	W=1e-05
+ AD=2.7e-12	AS=4.8e-12	PD=1.054e-05	PS=2.096e-05
+ NRD=0.0173	NRS=0.0173
MXI0/MM6@1	XI0/net3#32	XI0/net3#2	XI0/net16#75	VDDA	pe3
+ L=1e-06	W=1e-05
+ AD=2.7e-12	AS=4.8e-12	PD=1.054e-05	PS=2.096e-05
+ NRD=0.0173	NRS=0.0173
MXI0/MM6@3	XI0/net3#32	XI0/net3#5	XI0/net16#80	VDDA	pe3
+ L=1e-06	W=1e-05
+ AD=2.7e-12	AS=2.7e-12	PD=1.054e-05	PS=1.054e-05
+ NRD=0.0173	NRS=0.0173
MXI0/MM6	XI0/net3#47	XI0/net3#8	XI0/net16#80	VDDA	pe3
+ L=1e-06	W=1e-05
+ AD=2.7e-12	AS=2.7e-12	PD=1.054e-05	PS=1.054e-05
+ NRD=0.0173	NRS=0.0173
MXI0/MM6@2	XI0/net3#47	XI0/net3#11	XI0/net16#94	VDDA	pe3
+ L=1e-06	W=1e-05
+ AD=2.7e-12	AS=4.8e-12	PD=1.054e-05	PS=2.096e-05
+ NRD=0.0173	NRS=0.0173
MXI2/MM5@1	VDDA#905	VDDA#198	VDDA#890	VDDA	pe3
+ L=1e-05	W=1e-05
+ AD=4.8e-12	AS=4.8e-12	PD=2.096e-05	PS=2.096e-05
+ NRD=0.0173	NRS=0.0173
MXI2/MM5@3	VDDA#913	VDDA#202	VDDA#895	VDDA	pe3
+ L=1e-05	W=1e-05
+ AD=4.8e-12	AS=4.8e-12	PD=2.096e-05	PS=2.096e-05
+ NRD=0.0173	NRS=0.0173
MXI2/MM23@5	XI2/net6#245	XI2/net6#60	VDDA#880	VDDA	pe3
+ L=1e-05	W=1e-05
+ AD=4.8e-12	AS=4.8e-12	PD=2.096e-05	PS=2.096e-05
+ NRD=0.0173	NRS=0.0173
MXI2/MM22@7	XI2/net4#190	XI2/net6#64	VDDA#885	VDDA	pe3
+ L=1e-05	W=1e-05
+ AD=4.8e-12	AS=4.8e-12	PD=2.096e-05	PS=2.096e-05
+ NRD=0.0173	NRS=0.0173
MXI2/MM22@3	XI2/net4#185	XI2/net6#52	VDDA#870	VDDA	pe3
+ L=1e-05	W=1e-05
+ AD=4.8e-12	AS=4.8e-12	PD=2.096e-05	PS=2.096e-05
+ NRD=0.0173	NRS=0.0173
MXI2/MM23@7	XI2/net6#229	XI2/net6#56	VDDA#875	VDDA	pe3
+ L=1e-05	W=1e-05
+ AD=4.8e-12	AS=4.8e-12	PD=2.096e-05	PS=2.096e-05
+ NRD=0.0173	NRS=0.0173
MXI2/MM23@6	XI2/net6#213	XI2/net6#44	VDDA#860	VDDA	pe3
+ L=1e-05	W=1e-05
+ AD=4.8e-12	AS=4.8e-12	PD=2.096e-05	PS=2.096e-05
+ NRD=0.0173	NRS=0.0173
MXI2/MM22@6	XI2/net4#180	XI2/net6#48	VDDA#865	VDDA	pe3
+ L=1e-05	W=1e-05
+ AD=4.8e-12	AS=4.8e-12	PD=2.096e-05	PS=2.096e-05
+ NRD=0.0173	NRS=0.0173
MXI2/MM22@2	XI2/net4#175	XI2/net6#36	VDDA#842	VDDA	pe3
+ L=1e-05	W=1e-05
+ AD=4.8e-12	AS=4.8e-12	PD=2.096e-05	PS=2.096e-05
+ NRD=0.0173	NRS=0.0173
MXI2/MM23@1	XI2/net6#197	XI2/net6#40	VDDA#847	VDDA	pe3
+ L=1e-05	W=1e-05
+ AD=4.8e-12	AS=4.8e-12	PD=2.096e-05	PS=2.096e-05
+ NRD=0.0173	NRS=0.0173
MXI2/MM23@3	XI2/net6#181	XI2/net6#28	VDDA#832	VDDA	pe3
+ L=1e-05	W=1e-05
+ AD=4.8e-12	AS=4.8e-12	PD=2.096e-05	PS=2.096e-05
+ NRD=0.0173	NRS=0.0173
MXI2/MM22	XI2/net4#170	XI2/net6#32	VDDA#837	VDDA	pe3
+ L=1e-05	W=1e-05
+ AD=4.8e-12	AS=4.8e-12	PD=2.096e-05	PS=2.096e-05
+ NRD=0.0173	NRS=0.0173
MXI2/MM22@4	XI2/net4#153	XI2/net6#20	VDDA#822	VDDA	pe3
+ L=1e-05	W=1e-05
+ AD=4.8e-12	AS=4.8e-12	PD=2.096e-05	PS=2.096e-05
+ NRD=0.0173	NRS=0.0173
MXI2/MM23@4	XI2/net6#153	XI2/net6#24	VDDA#827	VDDA	pe3
+ L=1e-05	W=1e-05
+ AD=4.8e-12	AS=4.8e-12	PD=2.096e-05	PS=2.096e-05
+ NRD=0.0173	NRS=0.0173
MXI2/MM23@2	XI2/net6#125	XI2/net6#12	VDDA#812	VDDA	pe3
+ L=1e-05	W=1e-05
+ AD=4.8e-12	AS=4.8e-12	PD=2.096e-05	PS=2.096e-05
+ NRD=0.0173	NRS=0.0173
MXI2/MM22@1	XI2/net4#136	XI2/net6#16	VDDA#817	VDDA	pe3
+ L=1e-05	W=1e-05
+ AD=4.8e-12	AS=4.8e-12	PD=2.096e-05	PS=2.096e-05
+ NRD=0.0173	NRS=0.0173
MXI2/MM22@5	XI2/net4#119	XI2/net6#4	VDDA#802	VDDA	pe3
+ L=1e-05	W=1e-05
+ AD=4.8e-12	AS=4.8e-12	PD=2.096e-05	PS=2.096e-05
+ NRD=0.0173	NRS=0.0173
MXI2/MM23	XI2/net6#96	XI2/net6#8	VDDA#806	VDDA	pe3
+ L=1e-05	W=1e-05
+ AD=4.8e-12	AS=4.8e-12	PD=2.096e-05	PS=2.096e-05
+ NRD=0.0173	NRS=0.0173
MXI2/MM5	VDDA#799	VDDA#190	VDDA#787	VDDA	pe3
+ L=1e-05	W=1e-05
+ AD=4.8e-12	AS=4.8e-12	PD=2.096e-05	PS=2.096e-05
+ NRD=0.0173	NRS=0.0173
MXI2/MM5@2	VDDA#793	VDDA#194	VDDA#777	VDDA	pe3
+ L=1e-05	W=1e-05
+ AD=4.8e-12	AS=4.8e-12	PD=2.096e-05	PS=2.096e-05
+ NRD=0.0173	NRS=0.0173
MXI2/MM6@3	VDDA#1254	VDDA#210	VDDA#1241	VDDA	pe3
+ L=2e-06	W=1e-05
+ AD=4.8e-12	AS=4.8e-12	PD=2.096e-05	PS=2.096e-05
+ NRD=0.0173	NRS=0.0173
MXI2/MM6	VDDA#1260	VDDA#213	VDDA#1229	VDDA	pe3
+ L=2e-06	W=1e-05
+ AD=4.8e-12	AS=4.8e-12	PD=2.096e-05	PS=2.096e-05
+ NRD=0.0173	NRS=0.0173
MXI2/MM4@4	XI2/net1#76	XI2/net4#92	VDDA#1213	VDDA	pe3
+ L=2e-06	W=1e-05
+ AD=4.8e-12	AS=4.8e-12	PD=2.096e-05	PS=2.096e-05
+ NRD=0.0173	NRS=0.0173
MXI2/MM2@5	XI2/net2#94	XI2/net4#95	VDDA#1221	VDDA	pe3
+ L=2e-06	W=1e-05
+ AD=4.8e-12	AS=4.8e-12	PD=2.096e-05	PS=2.096e-05
+ NRD=0.0173	NRS=0.0173
MXI2/MM2@7	XI2/net2#88	XI2/net4#86	VDDA#1197	VDDA	pe3
+ L=2e-06	W=1e-05
+ AD=4.8e-12	AS=4.8e-12	PD=2.096e-05	PS=2.096e-05
+ NRD=0.0173	NRS=0.0173
MXI2/MM14@4	XI2/net8#112	XI2/net4#89	VDDA#1205	VDDA	pe3
+ L=2e-06	W=1e-05
+ AD=4.8e-12	AS=4.8e-12	PD=2.096e-05	PS=2.096e-05
+ NRD=0.0173	NRS=0.0173
MXI2/MM14@11	XI2/net8#106	XI2/net4#80	VDDA#1181	VDDA	pe3
+ L=2e-06	W=1e-05
+ AD=4.8e-12	AS=4.8e-12	PD=2.096e-05	PS=2.096e-05
+ NRD=0.0173	NRS=0.0173
MXI2/MM4@1	XI2/net1#58	XI2/net4#83	VDDA#1189	VDDA	pe3
+ L=2e-06	W=1e-05
+ AD=4.8e-12	AS=4.8e-12	PD=2.096e-05	PS=2.096e-05
+ NRD=0.0173	NRS=0.0173
MXI2/MM4@9	XI2/net1#46	XI2/net4#74	VDDA#1165	VDDA	pe3
+ L=2e-06	W=1e-05
+ AD=4.8e-12	AS=4.8e-12	PD=2.096e-05	PS=2.096e-05
+ NRD=0.0173	NRS=0.0173
MXI2/MM2@9	XI2/net2#82	XI2/net4#77	VDDA#1173	VDDA	pe3
+ L=2e-06	W=1e-05
+ AD=4.8e-12	AS=4.8e-12	PD=2.096e-05	PS=2.096e-05
+ NRD=0.0173	NRS=0.0173
MXI2/MM14@2	XI2/net8#100	XI2/net4#68	VDDA#1149	VDDA	pe3
+ L=2e-06	W=1e-05
+ AD=4.8e-12	AS=4.8e-12	PD=2.096e-05	PS=2.096e-05
+ NRD=0.0173	NRS=0.0173
MXI2/MM2@1	XI2/net2#76	XI2/net4#71	VDDA#1157	VDDA	pe3
+ L=2e-06	W=1e-05
+ AD=4.8e-12	AS=4.8e-12	PD=2.096e-05	PS=2.096e-05
+ NRD=0.0173	NRS=0.0173
MXI2/MM2	XI2/net2#64	XI2/net4#62	VDDA#1133	VDDA	pe3
+ L=2e-06	W=1e-05
+ AD=4.8e-12	AS=4.8e-12	PD=2.096e-05	PS=2.096e-05
+ NRD=0.0173	NRS=0.0173
MXI2/MM14@10	XI2/net8#94	XI2/net4#65	VDDA#1141	VDDA	pe3
+ L=2e-06	W=1e-05
+ AD=4.8e-12	AS=4.8e-12	PD=2.096e-05	PS=2.096e-05
+ NRD=0.0173	NRS=0.0173
MXI2/MM14@9	XI2/net8#88	XI2/net4#56	VDDA#1117	VDDA	pe3
+ L=2e-06	W=1e-05
+ AD=4.8e-12	AS=4.8e-12	PD=2.096e-05	PS=2.096e-05
+ NRD=0.0173	NRS=0.0173
MXI2/MM4@3	XI2/net1#40	XI2/net4#59	VDDA#1125	VDDA	pe3
+ L=2e-06	W=1e-05
+ AD=4.8e-12	AS=4.8e-12	PD=2.096e-05	PS=2.096e-05
+ NRD=0.0173	NRS=0.0173
MXI2/MM4	XI2/net1#34	XI2/net4#50	VDDA#1101	VDDA	pe3
+ L=2e-06	W=1e-05
+ AD=4.8e-12	AS=4.8e-12	PD=2.096e-05	PS=2.096e-05
+ NRD=0.0173	NRS=0.0173
MXI2/MM14@5	XI2/net8#82	XI2/net4#53	VDDA#1109	VDDA	pe3
+ L=2e-06	W=1e-05
+ AD=4.8e-12	AS=4.8e-12	PD=2.096e-05	PS=2.096e-05
+ NRD=0.0173	NRS=0.0173
MXI2/MM14@6	XI2/net8#76	XI2/net4#44	VDDA#1085	VDDA	pe3
+ L=2e-06	W=1e-05
+ AD=4.8e-12	AS=4.8e-12	PD=2.096e-05	PS=2.096e-05
+ NRD=0.0173	NRS=0.0173
MXI2/MM2@2	XI2/net2#40	XI2/net4#47	VDDA#1093	VDDA	pe3
+ L=2e-06	W=1e-05
+ AD=4.8e-12	AS=4.8e-12	PD=2.096e-05	PS=2.096e-05
+ NRD=0.0173	NRS=0.0173
MXI2/MM2@3	XI2/net2#28	XI2/net4#38	VDDA#1069	VDDA	pe3
+ L=2e-06	W=1e-05
+ AD=4.8e-12	AS=4.8e-12	PD=2.096e-05	PS=2.096e-05
+ NRD=0.0173	NRS=0.0173
MXI2/MM14@1	XI2/net8#70	XI2/net4#41	VDDA#1077	VDDA	pe3
+ L=2e-06	W=1e-05
+ AD=4.8e-12	AS=4.8e-12	PD=2.096e-05	PS=2.096e-05
+ NRD=0.0173	NRS=0.0173
MXI2/MM14@3	XI2/net8#64	XI2/net4#32	VDDA#1053	VDDA	pe3
+ L=2e-06	W=1e-05
+ AD=4.8e-12	AS=4.8e-12	PD=2.096e-05	PS=2.096e-05
+ NRD=0.0173	NRS=0.0173
MXI2/MM4@7	XI2/net1#28	XI2/net4#35	VDDA#1061	VDDA	pe3
+ L=2e-06	W=1e-05
+ AD=4.8e-12	AS=4.8e-12	PD=2.096e-05	PS=2.096e-05
+ NRD=0.0173	NRS=0.0173
MXI2/MM4@6	XI2/net1#22	XI2/net4#26	VDDA#1037	VDDA	pe3
+ L=2e-06	W=1e-05
+ AD=4.8e-12	AS=4.8e-12	PD=2.096e-05	PS=2.096e-05
+ NRD=0.0173	NRS=0.0173
MXI2/MM14	XI2/net8#58	XI2/net4#29	VDDA#1045	VDDA	pe3
+ L=2e-06	W=1e-05
+ AD=4.8e-12	AS=4.8e-12	PD=2.096e-05	PS=2.096e-05
+ NRD=0.0173	NRS=0.0173
MXI2/MM4@8	XI2/net1#16	XI2/net4#20	VDDA#1021	VDDA	pe3
+ L=2e-06	W=1e-05
+ AD=4.8e-12	AS=4.8e-12	PD=2.096e-05	PS=2.096e-05
+ NRD=0.0173	NRS=0.0173
MXI2/MM2@6	XI2/net2#16	XI2/net4#23	VDDA#1029	VDDA	pe3
+ L=2e-06	W=1e-05
+ AD=4.8e-12	AS=4.8e-12	PD=2.096e-05	PS=2.096e-05
+ NRD=0.0173	NRS=0.0173
MXI2/MM2@8	XI2/net2#10	XI2/net4#14	VDDA#1005	VDDA	pe3
+ L=2e-06	W=1e-05
+ AD=4.8e-12	AS=4.8e-12	PD=2.096e-05	PS=2.096e-05
+ NRD=0.0173	NRS=0.0173
MXI2/MM14@7	XI2/net8#40	XI2/net4#17	VDDA#1013	VDDA	pe3
+ L=2e-06	W=1e-05
+ AD=4.8e-12	AS=4.8e-12	PD=2.096e-05	PS=2.096e-05
+ NRD=0.0173	NRS=0.0173
MXI2/MM14@8	XI2/net8#28	XI2/net4#8	VDDA#989	VDDA	pe3
+ L=2e-06	W=1e-05
+ AD=4.8e-12	AS=4.8e-12	PD=2.096e-05	PS=2.096e-05
+ NRD=0.0173	NRS=0.0173
MXI2/MM4@5	XI2/net1#10	XI2/net4#11	VDDA#997	VDDA	pe3
+ L=2e-06	W=1e-05
+ AD=4.8e-12	AS=4.8e-12	PD=2.096e-05	PS=2.096e-05
+ NRD=0.0173	NRS=0.0173
MXI2/MM4@2	XI2/net1#4	XI2/net4#2	VDDA#975	VDDA	pe3
+ L=2e-06	W=1e-05
+ AD=4.8e-12	AS=4.8e-12	PD=2.096e-05	PS=2.096e-05
+ NRD=0.0173	NRS=0.0173
MXI2/MM2@4	XI2/net2#4	XI2/net4#5	VDDA#981	VDDA	pe3
+ L=2e-06	W=1e-05
+ AD=4.8e-12	AS=4.8e-12	PD=2.096e-05	PS=2.096e-05
+ NRD=0.0173	NRS=0.0173
MXI2/MM6@2	VDDA#963	VDDA#204	VDDA#939	VDDA	pe3
+ L=2e-06	W=1e-05
+ AD=4.8e-12	AS=4.8e-12	PD=2.096e-05	PS=2.096e-05
+ NRD=0.0173	NRS=0.0173
MXI2/MM6@1	VDDA#969	VDDA#207	VDDA#945	VDDA	pe3
+ L=2e-06	W=1e-05
+ AD=4.8e-12	AS=4.8e-12	PD=2.096e-05	PS=2.096e-05
+ NRD=0.0173	NRS=0.0173
MXI2/MM0	XI2/net7#117	XI2/net7#2	XI2/net102#28	VDDA	pe3
+ L=2e-06	W=1e-05
+ AD=2.7e-12	AS=4.8e-12	PD=1.054e-05	PS=2.096e-05
+ NRD=0.0173	NRS=0.0173
MXI2/MM0@1	XI2/net7#117	XI2/net7#5	XI2/net102#34	VDDA	pe3
+ L=2e-06	W=1e-05
+ AD=2.7e-12	AS=4.8e-12	PD=1.054e-05	PS=2.096e-05
+ NRD=0.0173	NRS=0.0173
MXI2/MM28	XI2/net102#16	XI2/net102#2	VDDA#927	VDDA	pe3
+ L=2e-06	W=1e-05
+ AD=2.7e-12	AS=4.8e-12	PD=1.054e-05	PS=2.096e-05
+ NRD=0.0173	NRS=0.0173
MXI2/MM28@1	XI2/net102#16	XI2/net102#5	VDDA#933	VDDA	pe3
+ L=2e-06	W=1e-05
+ AD=2.7e-12	AS=4.8e-12	PD=1.054e-05	PS=2.096e-05
+ NRD=0.0173	NRS=0.0173
MXI2/MM21@4	RES_BIAS#107	XI2/net7#8	XI2/net8#4	VDDA	pe3
+ L=1e-06	W=1e-05
+ AD=2.7e-12	AS=4.8e-12	PD=1.054e-05	PS=2.096e-05
+ NRD=0.0173	NRS=0.0173
MXI2/MM21@9	RES_BIAS#107	XI2/net7#11	XI2/net8#10	VDDA	pe3
+ L=1e-06	W=1e-05
+ AD=2.7e-12	AS=2.7e-12	PD=1.054e-05	PS=1.054e-05
+ NRD=0.0173	NRS=0.0173
MXI2/MM21@10	RES_BIAS#113	XI2/net7#14	XI2/net8#10	VDDA	pe3
+ L=1e-06	W=1e-05
+ AD=2.7e-12	AS=2.7e-12	PD=1.054e-05	PS=1.054e-05
+ NRD=0.0173	NRS=0.0173
MXI2/MM21@1	RES_BIAS#113	XI2/net7#17	XI2/net8#16	VDDA	pe3
+ L=1e-06	W=1e-05
+ AD=2.7e-12	AS=2.7e-12	PD=1.054e-05	PS=1.054e-05
+ NRD=0.0173	NRS=0.0173
MXI2/MM21@2	RES_BIAS#119	XI2/net7#20	XI2/net8#16	VDDA	pe3
+ L=1e-06	W=1e-05
+ AD=2.7e-12	AS=2.7e-12	PD=1.054e-05	PS=1.054e-05
+ NRD=0.0173	NRS=0.0173
MXI2/MM21@8	RES_BIAS#119	XI2/net7#23	XI2/net8#22	VDDA	pe3
+ L=1e-06	W=1e-05
+ AD=2.7e-12	AS=2.7e-12	PD=1.054e-05	PS=1.054e-05
+ NRD=0.0173	NRS=0.0173
MXI2/MM21	RES_BIAS#125	XI2/net7#26	XI2/net8#22	VDDA	pe3
+ L=1e-06	W=1e-05
+ AD=2.7e-12	AS=2.7e-12	PD=1.054e-05	PS=1.054e-05
+ NRD=0.0173	NRS=0.0173
MXI2/MM21@6	RES_BIAS#125	XI2/net7#29	XI2/net8#34	VDDA	pe3
+ L=1e-06	W=1e-05
+ AD=2.7e-12	AS=2.7e-12	PD=1.054e-05	PS=1.054e-05
+ NRD=0.0173	NRS=0.0173
MXI2/MM21@7	RES_BIAS#131	XI2/net7#32	XI2/net8#34	VDDA	pe3
+ L=1e-06	W=1e-05
+ AD=2.7e-12	AS=2.7e-12	PD=1.054e-05	PS=1.054e-05
+ NRD=0.0173	NRS=0.0173
MXI2/MM21@3	RES_BIAS#131	XI2/net7#35	XI2/net8#46	VDDA	pe3
+ L=1e-06	W=1e-05
+ AD=2.7e-12	AS=2.7e-12	PD=1.054e-05	PS=1.054e-05
+ NRD=0.0173	NRS=0.0173
MXI2/MM21@5	RES_BIAS#137	XI2/net7#38	XI2/net8#46	VDDA	pe3
+ L=1e-06	W=1e-05
+ AD=2.7e-12	AS=2.7e-12	PD=1.054e-05	PS=1.054e-05
+ NRD=0.0173	NRS=0.0173
MXI2/MM21@11	RES_BIAS#137	XI2/net7#41	XI2/net8#52	VDDA	pe3
+ L=1e-06	W=1e-05
+ AD=2.7e-12	AS=4.8e-12	PD=1.054e-05	PS=2.096e-05
+ NRD=0.0173	NRS=0.0173
MXI2/MM3@3	BIAS2#40	XI2/net7#74	XI2/net1#52	VDDA	pe3
+ L=1e-06	W=1e-05
+ AD=2.7e-12	AS=4.8e-12	PD=1.054e-05	PS=2.096e-05
+ NRD=0.0173	NRS=0.0173
MXI2/MM3@5	BIAS2#40	XI2/net7#77	XI2/net1#64	VDDA	pe3
+ L=1e-06	W=1e-05
+ AD=2.7e-12	AS=2.7e-12	PD=1.054e-05	PS=1.054e-05
+ NRD=0.0173	NRS=0.0173
MXI2/MM3@6	BIAS2#46	XI2/net7#80	XI2/net1#64	VDDA	pe3
+ L=1e-06	W=1e-05
+ AD=2.7e-12	AS=2.7e-12	PD=1.054e-05	PS=1.054e-05
+ NRD=0.0173	NRS=0.0173
MXI2/MM3	BIAS2#46	XI2/net7#83	XI2/net1#70	VDDA	pe3
+ L=1e-06	W=1e-05
+ AD=2.7e-12	AS=2.7e-12	PD=1.054e-05	PS=1.054e-05
+ NRD=0.0173	NRS=0.0173
MXI2/MM3@7	BIAS2#52	XI2/net7#86	XI2/net1#70	VDDA	pe3
+ L=1e-06	W=1e-05
+ AD=2.7e-12	AS=2.7e-12	PD=1.054e-05	PS=1.054e-05
+ NRD=0.0173	NRS=0.0173
MXI2/MM3@9	BIAS2#52	XI2/net7#89	XI2/net1#82	VDDA	pe3
+ L=1e-06	W=1e-05
+ AD=2.7e-12	AS=2.7e-12	PD=1.054e-05	PS=1.054e-05
+ NRD=0.0173	NRS=0.0173
MXI2/MM3@8	BIAS2#58	XI2/net7#92	XI2/net1#82	VDDA	pe3
+ L=1e-06	W=1e-05
+ AD=2.7e-12	AS=2.7e-12	PD=1.054e-05	PS=1.054e-05
+ NRD=0.0173	NRS=0.0173
MXI2/MM3@2	BIAS2#58	XI2/net7#95	XI2/net1#88	VDDA	pe3
+ L=1e-06	W=1e-05
+ AD=2.7e-12	AS=2.7e-12	PD=1.054e-05	PS=1.054e-05
+ NRD=0.0173	NRS=0.0173
MXI2/MM3@1	BIAS2#64	XI2/net7#98	XI2/net1#88	VDDA	pe3
+ L=1e-06	W=1e-05
+ AD=2.7e-12	AS=2.7e-12	PD=1.054e-05	PS=1.054e-05
+ NRD=0.0173	NRS=0.0173
MXI2/MM3@4	BIAS2#64	XI2/net7#101	XI2/net1#94	VDDA	pe3
+ L=1e-06	W=1e-05
+ AD=2.7e-12	AS=4.8e-12	PD=1.054e-05	PS=2.096e-05
+ NRD=0.0173	NRS=0.0173
MXI2/MM1@9	BIAS1#40	XI2/net7#44	XI2/net2#22	VDDA	pe3
+ L=1e-06	W=1e-05
+ AD=2.7e-12	AS=4.8e-12	PD=1.054e-05	PS=2.096e-05
+ NRD=0.0173	NRS=0.0173
MXI2/MM1@2	BIAS1#40	XI2/net7#47	XI2/net2#34	VDDA	pe3
+ L=1e-06	W=1e-05
+ AD=2.7e-12	AS=2.7e-12	PD=1.054e-05	PS=1.054e-05
+ NRD=0.0173	NRS=0.0173
MXI2/MM1@5	BIAS1#46	XI2/net7#50	XI2/net2#34	VDDA	pe3
+ L=1e-06	W=1e-05
+ AD=2.7e-12	AS=2.7e-12	PD=1.054e-05	PS=1.054e-05
+ NRD=0.0173	NRS=0.0173
MXI2/MM1@8	BIAS1#46	XI2/net7#53	XI2/net2#46	VDDA	pe3
+ L=1e-06	W=1e-05
+ AD=2.7e-12	AS=2.7e-12	PD=1.054e-05	PS=1.054e-05
+ NRD=0.0173	NRS=0.0173
MXI2/MM1	BIAS1#52	XI2/net7#56	XI2/net2#46	VDDA	pe3
+ L=1e-06	W=1e-05
+ AD=2.7e-12	AS=2.7e-12	PD=1.054e-05	PS=1.054e-05
+ NRD=0.0173	NRS=0.0173
MXI2/MM1@6	BIAS1#52	XI2/net7#59	XI2/net2#52	VDDA	pe3
+ L=1e-06	W=1e-05
+ AD=2.7e-12	AS=2.7e-12	PD=1.054e-05	PS=1.054e-05
+ NRD=0.0173	NRS=0.0173
MXI2/MM1@1	BIAS1#58	XI2/net7#62	XI2/net2#52	VDDA	pe3
+ L=1e-06	W=1e-05
+ AD=2.7e-12	AS=2.7e-12	PD=1.054e-05	PS=1.054e-05
+ NRD=0.0173	NRS=0.0173
MXI2/MM1@4	BIAS1#58	XI2/net7#65	XI2/net2#58	VDDA	pe3
+ L=1e-06	W=1e-05
+ AD=2.7e-12	AS=2.7e-12	PD=1.054e-05	PS=1.054e-05
+ NRD=0.0173	NRS=0.0173
MXI2/MM1@7	BIAS1#64	XI2/net7#68	XI2/net2#58	VDDA	pe3
+ L=1e-06	W=1e-05
+ AD=2.7e-12	AS=2.7e-12	PD=1.054e-05	PS=1.054e-05
+ NRD=0.0173	NRS=0.0173
MXI2/MM1@3	BIAS1#64	XI2/net7#71	XI2/net2#70	VDDA	pe3
+ L=1e-06	W=1e-05
+ AD=2.7e-12	AS=4.8e-12	PD=1.054e-05	PS=2.096e-05
+ NRD=0.0173	NRS=0.0173
*
*
*       BIPOLAR TRANSISTOR CARDS
*
*
QXI0/QQ5	GNDA	GNDA	XI0/net9	qpvc3
QXI0/QQ5@1	GNDA	GNDA	XI0/net9#41	qpvc3
QXI0/QQ5@2	GNDA	GNDA	XI0/net9#35	qpvc3
QXI0/QQ5@3	GNDA	GNDA	XI0/net9#29	qpvc3
QXI0/QQ5@4	GNDA	GNDA	XI0/net9#23	qpvc3
QXI0/QQ5@5	GNDA	GNDA	XI0/net9#17	qpvc3
QXI0/QQ5@6	GNDA	GNDA	XI0/net9#11	qpvc3
QXI0/QQ5@7	GNDA	GNDA	XI0/net9#5	qpvc3
QXI0/QQ5@8	GNDA	GNDA	XI0/net9#89	qpvc3
QXI0/QQ5@9	GNDA	GNDA	XI0/net9#83	qpvc3
QXI0/QQ5@10	GNDA	GNDA	XI0/net9#77	qpvc3
QXI0/QQ6	GNDA	GNDA	XI0/net11#84	qpvc3
QXI0/QQ5@11	GNDA	GNDA	XI0/net9#71	qpvc3
QXI0/QQ5@12	GNDA	GNDA	XI0/net9#65	qpvc3
QXI0/QQ5@13	GNDA	GNDA	XI0/net9#59	qpvc3
QXI0/QQ5@14	GNDA	GNDA	XI0/net9#53	qpvc3
QXI0/QQ5@15	GNDA	GNDA	XI0/net9#137	qpvc3
QXI0/QQ5@16	GNDA	GNDA	XI0/net9#131	qpvc3
QXI0/QQ5@17	GNDA	GNDA	XI0/net9#125	qpvc3
QXI0/QQ5@18	GNDA	GNDA	XI0/net9#119	qpvc3
QXI0/QQ5@19	GNDA	GNDA	XI0/net9#113	qpvc3
QXI0/QQ5@20	GNDA	GNDA	XI0/net9#107	qpvc3
QXI0/QQ5@21	GNDA	GNDA	XI0/net9#101	qpvc3
QXI0/QQ5@22	GNDA	GNDA	XI0/net9#95	qpvc3
QXI0/QQ5@23	GNDA	GNDA	XI0/net9#185	qpvc3
QXI0/QQ5@24	GNDA	GNDA	XI0/net9#179	qpvc3
QXI0/QQ5@25	GNDA	GNDA	XI0/net9#173	qpvc3
QXI0/QQ5@26	GNDA	GNDA	XI0/net9#167	qpvc3
QXI0/QQ5@27	GNDA	GNDA	XI0/net9#161	qpvc3
QXI0/QQ5@28	GNDA	GNDA	XI0/net9#155	qpvc3
QXI0/QQ5@29	GNDA	GNDA	XI0/net9#149	qpvc3
QXI0/QQ5@30	GNDA	GNDA	XI0/net9#95	qpvc3
*
*
*       CANONICAL RESISTOR AND CAP/DIODE CARDS
*
RXI0/RR6	XI0/net11#25	XI0/net8#3	rpp1k1_3 	L=0.00082283
+ W=4e-06	$SUB=GNDA 
RXI0/RR8	XI0/net23#25	XI0/net5#3	rpp1k1_3 	L=0.00082283
+ W=4e-06	$SUB=GNDA 
RXI0/RR10	XI0/net8	BGAP_REF#4	rpp1k1_3 	L=0.00082283
+ W=4e-06	$SUB=GNDA 
RXI0/RR11	XI0/net5	BGAP_REF#6	rpp1k1_3 	L=0.00082283
+ W=4e-06	$SUB=GNDA 
RXI0/RR7	XI0/net9#2	XI0/net23#28	rpp1k1_3 	L=0.0005215
+ W=8e-06	$SUB=GNDA 
RXI2/RR0	XI2/net3	RES_BIAS#43	rpp1k1_3 	L=0.0005141
+ W=4e-06	$SUB=GNDA 
RXI1/RR3	GNDA#1	XI1/net25#1	rpp1k1_3 	L=0.0002878	W=4e-06
+ $SUB=VDDA 
*
*       PARASITIC RESISTOR AND CAP/DIODE CARDS
*
Rb266	XI2/net4#539	XI2/net4#633	0.569273	$METTP	$L=1.628e-05
+ $W=8.8e-07	$X=664.405 $Y=122.57
Rb267	XI2/net4#633	XI2/net4#634	1.413494	$METTP	$L=4.0245e-05
+ $W=8.8e-07	$X=644.2825 $Y=138.85
Rb268	XI2/net4#634	XI2/net4#635	1.647932	$METTP	$L=4.69e-05
+ $W=8.8e-07	$X=624.16 $Y=138.85
Rb269	XI2/net4#635	XI2/net4#468	0.635335	$METTP	$L=1.80955e-05
+ $W=8.8e-07	$X=615.1125 $Y=185.75
Rb350	XI2/net4#539	XI2/net4#717	1.108955	$METTP	$L=3.16e-05
+ $W=8.8e-07	$X=664.405 $Y=122.57
Rb351	XI2/net4#717	XI2/net4#718	1.108955	$METTP	$L=3.16e-05
+ $W=8.8e-07	$X=664.405 $Y=90.97
Rb352	XI2/net4#718	XI2/net4#719	1.108955	$METTP	$L=3.16e-05
+ $W=8.8e-07	$X=664.405 $Y=59.37
Rb353	XI2/net4#719	XI2/net4#720	0.543917	$METTP	$L=1.55002e-05
+ $W=8.8e-07	$X=664.405 $Y=27.77
Rb355	XI2/net4#633	XI2/net4#722	1.159330	$METTP	$L=3.303e-05
+ $W=8.8e-07	$X=680.92 $Y=138.85
Rb356	XI2/net4#722	XI2/net4#723	0.569273	$METTP	$L=1.628e-05
+ $W=8.8e-07	$X=697.435 $Y=138.85
Rb357	XI2/net4#723	XI2/net4#724	1.108955	$METTP	$L=3.16e-05
+ $W=8.8e-07	$X=697.435 $Y=122.57
Rb358	XI2/net4#724	XI2/net4#725	1.108955	$METTP	$L=3.16e-05
+ $W=8.8e-07	$X=697.435 $Y=90.97
Rb359	XI2/net4#725	XI2/net4#726	1.108955	$METTP	$L=3.16e-05
+ $W=8.8e-07	$X=697.435 $Y=59.37
Rb360	XI2/net4#726	XI2/net4#727	0.543917	$METTP	$L=1.55002e-05
+ $W=8.8e-07	$X=697.435 $Y=27.77
Rc5	BGAP_REF#352	BGAP_REF#354	0.955803	$MET4	$L=1.54995e-05
+ $W=1.16e-06	$X=219.18 $Y=35.57
Rc6	BGAP_REF#354	BGAP_REF#355	1.853117	$MET4	$L=2.40605e-05
+ $W=9.6e-07	$X=219.23 $Y=43.3195
Rc8	BGAP_REF#355	BGAP_REF#151	1.519679	$MET4	$L=2.16947e-05
+ $W=9.6e-07	$X=216.37 $Y=67.38
Rc9	XI2/net6#333	XI2/net6#349	0.539034	$MET4	$L=1.1295e-05
+ $W=1.46e-06	$X=477.16 $Y=162.795
Rc10	XI2/net6#349	XI2/net6#359	1.783096	$MET4	$L=3.593e-05
+ $W=1.46e-06	$X=477.16 $Y=152.205
Rc12	XI2/net4#506	XI2/net4#496	1.783096	$MET4	$L=3.593e-05
+ $W=1.46e-06	$X=479.04 $Y=118.805
Rc14	XI2/COM	XI2/COM#652	1.512438	$MET4	$L=2.984e-05
+ $W=1.46e-06	$X=480.92 $Y=150.425
Rc17	XI2/COM	XI2/COM#652	1.512438	$MET4	$L=2.984e-05
+ $W=1.46e-06	$X=537.94 $Y=150.425
Rc18	XI2/COM#652	XI2/COM#611	0.603918	$MET4	$L=1.19152e-05
+ $W=1.46e-06	$X=538.195 $Y=120.585
Rc22	XI2/net6#340	XI2/net6#350	1.783096	$MET4	$L=3.593e-05
+ $W=1.46e-06	$X=539.82 $Y=152.205
Rc25	XI2/net4#505	XI2/net4#508	1.783096	$MET4	$L=3.518e-05
+ $W=1.46e-06	$X=541.7 $Y=153.985
Rc31	XI2/net3#14	XI2/net3#15	1.193269	$MET4	$L=1.55002e-05
+ $W=9.6e-07	$X=698.715 $Y=12.27
Rc32	XI2/net3#15	XI2/net3#16	2.432750	$MET4	$L=3.16e-05
+ $W=9.6e-07	$X=698.715 $Y=27.77
Rc33	XI2/net3#16	XI2/net3#17	2.432750	$MET4	$L=3.16e-05
+ $W=9.6e-07	$X=698.715 $Y=59.37
Rc34	XI2/net3#17	XI2/net3#18	2.432750	$MET4	$L=3.16e-05
+ $W=9.6e-07	$X=698.715 $Y=90.97
Rc35	XI2/net3#18	XI2/net3#19	1.350500	$MET4	$L=1.756e-05
+ $W=9.6e-07	$X=698.715 $Y=122.57
Rc36	XI2/net3#19	XI2/net3#20	2.740313	$MET4	$L=3.559e-05
+ $W=9.6e-07	$X=680.92 $Y=140.13
Rc37	XI2/net3#20	XI2/net3#21	7.040020	$MET4	$L=9.137e-05
+ $W=9.6e-07	$X=617.44 $Y=140.13
Rc38	XI2/net3#21	XI2/net3#22	1.244125	$MET4	$L=1.618e-05
+ $W=9.6e-07	$X=571.755 $Y=140.13
Rc39	XI2/net3#22	XI2/net3#3	1.493539	$MET4	$L=1.94153e-05
+ $W=9.6e-07	$X=562.0475 $Y=123.95
Rc49	XI2/net3#20	XI2/net3#33	1.350500	$MET4	$L=1.756e-05
+ $W=9.6e-07	$X=663.125 $Y=140.13
Rc50	XI2/net3#33	XI2/net3#34	2.432750	$MET4	$L=3.16e-05
+ $W=9.6e-07	$X=663.125 $Y=122.57
Rc51	XI2/net3#34	XI2/net3#35	2.432750	$MET4	$L=3.16e-05
+ $W=9.6e-07	$X=663.125 $Y=90.97
Rc52	XI2/net3#35	XI2/net3#36	2.432750	$MET4	$L=3.16e-05
+ $W=9.6e-07	$X=663.125 $Y=59.37
Rc53	XI2/net3#36	XI2/net3#37	1.193269	$MET4	$L=1.55002e-05
+ $W=9.6e-07	$X=663.125 $Y=27.77
Rd1	VDDA#1604	VDDA#1305	0.728342	$MET3	$L=1.437e-05
+ $W=1.46e-06	$X=22.585 $Y=88.225
Rd2	VDDA#1305	VDDA	0.981260	$MET3	$L=1.936e-05
+ $W=1.46e-06	$X=22.585 $Y=95.41
Rd6	XI1/net18#34	XI1/net18#36	0.981260	$MET3	$L=1.936e-05
+ $W=1.46e-06	$X=20.805 $Y=117.58
Rd7	XI1/net18#36	XI1/net18#21	0.973392	$MET3	$L=1.92248e-05
+ $W=1.46e-06	$X=20.805 $Y=98.22
Rd17	XI1/net24	XI1/net24#126	0.881852	$MET3	$L=1.18603e-05
+ $W=9.6e-07	$X=39.405 $Y=58.755
Rd18	VDDA#1609	VDDA#1305	0.728342	$MET3	$L=1.437e-05
+ $W=1.46e-06	$X=52.605 $Y=88.225
Rd19	VDDA#1305	VDDA	0.981260	$MET3	$L=1.936e-05
+ $W=1.46e-06	$X=52.605 $Y=95.41
Rd23	XI1/net17#122	XI1/net17#124	0.981260	$MET3	$L=1.936e-05
+ $W=1.46e-06	$X=54.385 $Y=116.3
Rd24	XI1/net17#124	XI1/net17#125	0.780548	$MET3	$L=1.54e-05
+ $W=1.46e-06	$X=54.385 $Y=96.94
Rd26	XI1/net17#125	XI1/net17#95	0.918411	$MET3	$L=1.816e-05
+ $W=1.46e-06	$X=45.305 $Y=78.88
Rd29	XI1/net30#36	XI1/net30#38	0.981260	$MET3	$L=1.936e-05
+ $W=1.46e-06	$X=56.165 $Y=118.86
Rd30	XI1/net30#38	XI1/net30#21	1.135837	$MET3	$L=2.24298e-05
+ $W=1.46e-06	$X=56.165 $Y=99.5
Rd34	XI1/net40#21	XI1/net40#38	1.432610	$MET3	$L=2.8265e-05
+ $W=1.46e-06	$X=57.8975 $Y=71.765
Rd35	XI1/net40#38	XI1/net40#39	0.981260	$MET3	$L=1.936e-05
+ $W=1.46e-06	$X=57.945 $Y=100.78
Rd38	XI1/net47#17	XI1/net47#19	2.339603	$MET3	$L=4.61598e-05
+ $W=1.46e-06	$X=59.725 $Y=121.42
Rd39	XI1/net47#19	XI1/net47#6	0.711029	$MET3	$L=5.76525e-06
+ $W=6e-07	$X=59.83 $Y=75.26
Rd40	XI1/net47#6	XI1/net47#21	0.611733	$MET3	$L=4.96e-06
+ $W=6e-07	$X=59.785 $Y=67.015
Rd41	XI1/net23#48	XI1/net23#23	1.223467	$MET3	$L=4.96e-06
+ $W=3e-07	$X=75.645 $Y=30.575
Rd42	XI1/net23#23	XI1/net23#50	1.401302	$MET3	$L=5.73975e-06
+ $W=3e-07	$X=75.645 $Y=22.755
Rd46	XI1/net23#50	XI1/net23#54	1.180007	$MET3	$L=1.5335e-05
+ $W=9.6e-07	$X=49.7375 $Y=19.885
Rd47	XI1/net23#54	XI1/net23#27	1.763698	$MET3	$L=2.292e-05
+ $W=9.6e-07	$X=42.07 $Y=19.885
Rd49	XI1/net23#50	XI1/net23#19	1.329515	$MET3	$L=5.73975e-06
+ $W=3e-07	$X=69.565 $Y=19.885
Rd50	XI1/net23#19	XI1/net23#58	1.223467	$MET3	$L=4.96e-06
+ $W=3e-07	$X=69.565 $Y=28.105
Rd51	XI1/net23#50	XI1/net23#15	1.329515	$MET3	$L=5.73975e-06
+ $W=3e-07	$X=63.485 $Y=19.885
Rd52	XI1/net23#15	XI1/net23#60	1.223467	$MET3	$L=4.96e-06
+ $W=3e-07	$X=63.485 $Y=28.105
Rd53	XI1/net23#50	XI1/net23#11	1.329515	$MET3	$L=5.73975e-06
+ $W=3e-07	$X=57.405 $Y=19.885
Rd54	XI1/net23#11	XI1/net23#62	1.223467	$MET3	$L=4.96e-06
+ $W=3e-07	$X=57.405 $Y=28.105
Rd57	BIAS3	BIAS3#1	1.373839	$MET3	$L=2.711e-05
+ $W=1.46e-06	$X=76.53 $Y=69.515
Rd58	BIAS3#1	BIAS3#11	1.202282	$MET3	$L=4.96e-06
+ $W=3e-07	$X=62.975 $Y=69.515
Rd59	BIAS3#1	BIAS3#12	1.200998	$MET3	$L=4.96e-06
+ $W=3e-07	$X=62.975 $Y=69.515
Rd61	XI0/net6#113	XI0/net6#124	0.801329	$MET3	$L=1.581e-05
+ $W=1.46e-06	$X=104.925 $Y=47.02
Rd62	XI0/net6#124	XI0/net6#111	0.718205	$MET3	$L=1.417e-05
+ $W=1.46e-06	$X=104.925 $Y=31.21
Rd65	XI0/net16#225	XI0/net16#246	0.856575	$MET3	$L=1.69e-05
+ $W=1.46e-06	$X=103.525 $Y=137.955
Rd66	XI0/net16#246	XI0/net16#243	0.863671	$MET3	$L=1.704e-05
+ $W=1.46e-06	$X=103.525 $Y=121.055
Rd67	XI0/net16#243	XI0/net16#216	1.325652	$MET3	$L=2.61747e-05
+ $W=1.46e-06	$X=103.525 $Y=104.015
Rd71	net1#94	net1#80	2.820629	$MET3	$L=5.72002e-05
+ $W=1.46e-06	$X=80.345 $Y=62.685
Rd73	XI0/net2#48	XI0/net2#42	1.519534	$MET3	$L=2.998e-05
+ $W=1.46e-06	$X=106.705 $Y=15.26
Rd75	XI0/net2#42	XI0/net2#36	0.572233	$MET3	$L=1.133e-05
+ $W=1.46e-06	$X=112.37 $Y=51.67
Rd79	GNDA#1067	GNDA	0.930286	$MET3	$L=2.464e-05
+ $W=1.96e-06	$X=127.335 $Y=43.46
Rd86	GNDA	GNDA#1067	0.930286	$MET3	$L=2.464e-05
+ $W=1.96e-06	$X=108.735 $Y=18.82
Rd89	XI0/A#167	XI0/A#151	1.036755	$MET3	$L=2.746e-05
+ $W=1.96e-06	$X=138 $Y=89.04
Rd92	XI0/net15#222	XI0/net15#228	1.238367	$MET3	$L=3.28e-05
+ $W=1.96e-06	$X=135.72 $Y=92.6
Rd96	XI0/net15#228	XI0/net15#257	0.599929	$MET3	$L=1.589e-05
+ $W=1.96e-06	$X=138.105 $Y=45.645
Rd97	XI0/net15#257	XI0/net15#250	0.534990	$MET3	$L=1.417e-05
+ $W=1.96e-06	$X=138.105 $Y=29.755
Rd103	VDDA	VDDA#1339	1.012592	$MET3	$L=2.682e-05
+ $W=1.96e-06	$X=105.555 $Y=134.395
Rd106	VDDA	VDDA#1339	1.012592	$MET3	$L=2.682e-05
+ $W=1.96e-06	$X=141.255 $Y=134.395
Rd111	XI0/net14#36	XI0/net14#55	1.019527	$MET3	$L=2.0155e-05
+ $W=1.46e-06	$X=118.37 $Y=79.615
Rd112	XI0/net14#55	XI0/net14#47	1.260788	$MET3	$L=2.4915e-05
+ $W=1.46e-06	$X=130.8275 $Y=99.77
Rd114	XI0/net14#47	XI0/net14#42	1.720247	$MET3	$L=3.469e-05
+ $W=1.46e-06	$X=143.285 $Y=105.795
Rd115	XI0/net1#18	XI0/net1#10	1.828205	$MET3	$L=3.607e-05
+ $W=1.46e-06	$X=129.365 $Y=30.765
Rd116	XI0/net1#10	XI0/net1#20	2.445560	$MET3	$L=4.82702e-05
+ $W=1.46e-06	$X=129.365 $Y=48.8
Rd117	XI0/net1#20	XI0/net1#14	1.767380	$MET3	$L=3.489e-05
+ $W=1.46e-06	$X=146.81 $Y=97.07
Rd120	XI0/net7#24	XI0/net7#28	2.368507	$MET3	$L=4.677e-05
+ $W=1.46e-06	$X=154.53 $Y=94.93
Rd121	XI0/net7#28	XI0/net7#18	4.127286	$MET3	$L=8.22002e-05
+ $W=1.46e-06	$X=131.145 $Y=94.93
Rd123	BGAP_REF#246	BGAP_REF#219	1.819238	$MET3	$L=4.81852e-05
+ $W=1.96e-06	$X=169.907 $Y=102.705
Rd125	BGAP_REF#219	BGAP_REF#209	1.718260	$MET3	$L=3.394e-05
+ $W=1.46e-06	$X=145.065 $Y=102.595
Rd128	XI0/A#167	XI0/A#151	1.036755	$MET3	$L=2.746e-05
+ $W=1.96e-06	$X=204.74 $Y=89.04
Rd132	GNDA	GNDA#1118	1.076389	$MET3	$L=2.85298e-05
+ $W=1.96e-06	$X=154.65 $Y=11.42
Rd134	GNDA	GNDA#1118	1.076407	$MET3	$L=2.85303e-05
+ $W=1.96e-06	$X=191.44 $Y=11.42
Rd136	GNDA#1118	GNDA#1102	0.933306	$MET3	$L=2.472e-05
+ $W=1.96e-06	$X=205.705 $Y=17.365
Rd138	GNDA#1118	GNDA#1102	0.933306	$MET3	$L=2.472e-05
+ $W=1.96e-06	$X=140.385 $Y=17.365
Rd143	XI0/net11#88	XI0/net11#123	1.725822	$MET3	$L=3.409e-05
+ $W=1.46e-06	$X=172.385 $Y=139.485
Rd144	XI0/net11#123	XI0/net11#124	1.932616	$MET3	$L=3.817e-05
+ $W=1.46e-06	$X=191.47 $Y=105.395
Rd145	XI0/net11#124	XI0/net11#125	1.472156	$MET3	$L=2.94653e-05
+ $W=1.46e-06	$X=210.555 $Y=105.395
Rd147	XI0/net17#159	XI0/net17#138	1.238367	$MET3	$L=3.28e-05
+ $W=1.96e-06	$X=207.02 $Y=90.82
Rd151	XI0/net17#138	XI0/net17#150	1.133914	$MET3	$L=3.006e-05
+ $W=1.96e-06	$X=207.985 $Y=43.865
Rd161	XI0/net11#80	XI0/net11#131	4.298589	$MET3	$L=8.485e-05
+ $W=1.46e-06	$X=351.08 $Y=96.365
Rd162	XI0/net11#131	XI0/net11#132	1.260281	$MET3	$L=2.4905e-05
+ $W=1.46e-06	$X=393.505 $Y=96.365
Rd163	XI0/net11#132	XI0/net11#84	1.214659	$MET3	$L=2.3985e-05
+ $W=1.46e-06	$X=405.4975 $Y=71.46
Rd165	net2#172	net2#203	2.292974	$MET3	$L=4.59198e-05
+ $W=1.46e-06	$X=474.425 $Y=51.35
Rd166	net2#203	net2#204	19.355057	$MET3	$L=0.00038191
+ $W=1.46e-06	$X=283.47 $Y=6.135
Rd167	net2#204	net2#205	2.643726	$MET3	$L=5.22e-05
+ $W=1.46e-06	$X=92.515 $Y=6.135
Rd168	net2#205	net2#166	2.279555	$MET3	$L=4.5015e-05
+ $W=1.46e-06	$X=70.0075 $Y=58.335
Rd173	XI2/net6#333	XI2/net6#327	0.896110	$MET3	$L=1.768e-05
+ $W=1.46e-06	$X=476.73 $Y=171.325
Rd174	XI2/net6#327	XI2/net6#338	0.870767	$MET3	$L=1.718e-05
+ $W=1.46e-06	$X=476.73 $Y=189.005
Rd177	XI2/net123#150	XI2/net123#152	0.815521	$MET3	$L=1.609e-05
+ $W=1.46e-06	$X=483.41 $Y=13.825
Rd178	XI2/net123#152	XI2/net123#153	0.809945	$MET3	$L=1.598e-05
+ $W=1.46e-06	$X=483.41 $Y=29.915
Rd179	XI2/net123#153	XI2/net123#123	0.599869	$MET3	$L=1.18553e-05
+ $W=1.46e-06	$X=483.41 $Y=45.895
Rd183	GNDA#1216	GNDA#543	0.609033	$MET3	$L=1.609e-05
+ $W=1.955e-06	$X=485.44 $Y=33.755
Rd192	GNDA#1223	GNDA#543	0.607480	$MET3	$L=1.609e-05
+ $W=1.96e-06	$X=532.04 $Y=33.755
Rd196	XI2/net5#70	XI2/net5#71	0.822616	$MET3	$L=1.623e-05
+ $W=1.46e-06	$X=535.85 $Y=39.31
Rd197	XI2/net5#71	XI2/net5#72	0.815521	$MET3	$L=1.609e-05
+ $W=1.46e-06	$X=535.85 $Y=31.195
Rd199	XI2/COM#611	XI2/COM#575	2.590495	$MET3	$L=5.29198e-05
+ $W=1.46e-06	$X=538.96 $Y=106.88
Rd209	XI2/net4#496	XI2/net4#505	0.623425	$MET3	$L=1.305e-05
+ $W=1.46e-06	$X=535.55 $Y=153.985
Rd218	XI2/net6#340	XI2/net6#349	0.752164	$MET3	$L=1.559e-05
+ $W=1.46e-06	$X=484.58 $Y=152.205
Rd294	XI2/net4#506	XI2/net4#508	0.656877	$MET3	$L=1.296e-05
+ $W=1.46e-06	$X=485.52 $Y=118.805
Rd303	XI2/net6#350	XI2/net6#352	0.528137	$MET3	$L=1.042e-05
+ $W=1.46e-06	$X=534.61 $Y=117.025
Rd310	XI2/net6#352	XI2/net6#359	0.579836	$MET3	$L=1.219e-05
+ $W=1.46e-06	$X=482.88 $Y=117.025
Rd311	BGAP_REF#330	BGAP_REF#331	1.706826	$MET3	$L=1.061e-05
+ $W=4.6e-07	$X=537.145 $Y=135.895
Rd312	BGAP_REF#331	BGAP_REF#332	0.596826	$MET3	$L=3.71e-06
+ $W=4.6e-07	$X=529.985 $Y=135.895
Rd314	BGAP_REF#332	BGAP_REF#334	0.596826	$MET3	$L=3.71e-06
+ $W=4.6e-07	$X=523.185 $Y=135.895
Rd316	BGAP_REF#334	BGAP_REF#336	0.596826	$MET3	$L=3.71e-06
+ $W=4.6e-07	$X=516.385 $Y=135.895
Rd318	BGAP_REF#336	BGAP_REF#338	0.596826	$MET3	$L=3.71e-06
+ $W=4.6e-07	$X=509.585 $Y=135.895
Rd320	BGAP_REF#338	BGAP_REF#340	0.596826	$MET3	$L=3.71e-06
+ $W=4.6e-07	$X=502.785 $Y=135.895
Rd322	BGAP_REF#340	BGAP_REF#342	0.596826	$MET3	$L=3.71e-06
+ $W=4.6e-07	$X=495.985 $Y=135.895
Rd324	BGAP_REF#342	BGAP_REF#344	0.596826	$MET3	$L=3.71e-06
+ $W=4.6e-07	$X=489.185 $Y=135.895
Rd325	BGAP_REF#344	BGAP_REF#345	2.412258	$MET3	$L=1.49952e-05
+ $W=4.6e-07	$X=479.832 $Y=135.895
Rd327	BGAP_REF#345	BGAP_REF#347	0.772394	$MET3	$L=1.00603e-05
+ $W=9.6e-07	$X=469.025 $Y=135.875
Rd328	BGAP_REF#347	BGAP_REF#348	5.849083	$MET3	$L=7.592e-05
+ $W=9.6e-07	$X=431.065 $Y=145.935
Rd330	BGAP_REF#348	BGAP_REF	13.614755	$MET3	$L=0.000176665
+ $W=9.6e-07	$X=304.7725 $Y=142.695
Rd336	RES_BIAS#224	RES_BIAS#225	1.756696	$MET3	$L=1.092e-05
+ $W=4.6e-07	$X=481.87 $Y=135.115
Rd338	RES_BIAS#225	RES_BIAS#227	0.596826	$MET3	$L=3.71e-06
+ $W=4.6e-07	$X=492.275 $Y=135.115
Rd340	RES_BIAS#227	RES_BIAS#229	0.596826	$MET3	$L=3.71e-06
+ $W=4.6e-07	$X=499.075 $Y=135.115
Rd342	RES_BIAS#229	RES_BIAS#231	0.596826	$MET3	$L=3.71e-06
+ $W=4.6e-07	$X=505.875 $Y=135.115
Rd344	RES_BIAS#231	RES_BIAS#233	0.596826	$MET3	$L=3.71e-06
+ $W=4.6e-07	$X=512.675 $Y=135.115
Rd346	RES_BIAS#233	RES_BIAS#235	0.596826	$MET3	$L=3.71e-06
+ $W=4.6e-07	$X=519.475 $Y=135.115
Rd348	RES_BIAS#235	RES_BIAS#237	0.596826	$MET3	$L=3.71e-06
+ $W=4.6e-07	$X=526.275 $Y=135.115
Rd350	RES_BIAS#237	RES_BIAS#239	2.959233	$MET3	$L=1.84153e-05
+ $W=4.6e-07	$X=540.4275 $Y=135.115
Rd351	RES_BIAS#239	RES_BIAS#101	2.933456	$MET3	$L=1.8275e-05
+ $W=4.6e-07	$X=549.635 $Y=135.115
Rd356	VDDA#1398	VDDA#1379	0.667510	$MET3	$L=1.768e-05
+ $W=1.96e-06	$X=478.76 $Y=174.885
Rd357	VDDA#1379	VDDA#1628	0.651567	$MET3	$L=1.72803e-05
+ $W=1.96e-06	$X=478.7625 $Y=192.565
Rd358	VDDA#1628	VDDA	1.909085	$MET3	$L=5.0585e-05
+ $W=1.96e-06	$X=504.0575 $Y=209.845
Rd362	VDDA	VDDA#1633	1.910047	$MET3	$L=5.06105e-05
+ $W=1.96e-06	$X=570.195 $Y=209.845
Rd363	VDDA#1633	VDDA#1367	0.651662	$MET3	$L=1.72803e-05
+ $W=1.96e-06	$X=595.5 $Y=209.845
Rd364	VDDA#1367	VDDA#1385	0.667510	$MET3	$L=1.768e-05
+ $W=1.96e-06	$X=595.5 $Y=192.565
Rd366	XI2/net4#516	XI2/net4#468	0.793219	$MET3	$L=1.565e-05
+ $W=1.46e-06	$X=597.53 $Y=198.61
Rd367	XI2/net4#468	XI2/net4#446	0.896110	$MET3	$L=1.768e-05
+ $W=1.46e-06	$X=597.53 $Y=190.785
Rd369	XI2/net4#446	XI2/net4#505	2.827459	$MET3	$L=5.5825e-05
+ $W=1.46e-06	$X=569.6175 $Y=165.54
Rd376	XI2/net7#368	XI2/net7#370	0.815521	$MET3	$L=1.609e-05
+ $W=1.46e-06	$X=534.07 $Y=16.385
Rd377	XI2/net7#370	XI2/net7#371	0.923745	$MET3	$L=1.82453e-05
+ $W=1.46e-06	$X=534.07 $Y=32.475
Rd379	XI2/net7#371	XI2/net7#373	2.996747	$MET3	$L=5.9165e-05
+ $W=1.46e-06	$X=542.33 $Y=50.72
Rd380	XI2/net7#373	XI2/net7#374	4.053527	$MET3	$L=8.0015e-05
+ $W=1.46e-06	$X=582.3375 $Y=109.885
Rd381	XI2/net7#374	XI2/net7#375	2.868755	$MET3	$L=5.66198e-05
+ $W=1.46e-06	$X=622.345 $Y=109.885
Rd382	XI2/net7#375	XI2/net7#329	1.244062	$MET3	$L=2.5205e-05
+ $W=1.46e-06	$X=622.345 $Y=166.505
Rd383	XI2/net8#141	XI2/net8#132	0.872288	$MET3	$L=1.721e-05
+ $W=1.46e-06	$X=630.395 $Y=205.345
Rd384	XI2/net8#132	XI2/net8#140	1.014712	$MET3	$L=2.002e-05
+ $W=1.46e-06	$X=630.395 $Y=196.74
Rd385	XI2/net8#140	XI2/net8#115	1.199953	$MET3	$L=2.36947e-05
+ $W=1.46e-06	$X=630.395 $Y=176.72
Rd388	VDDA	VDDA#1401	0.554245	$MET3	$L=1.468e-05
+ $W=1.96e-06	$X=632.425 $Y=213.2
Rd389	VDDA#1401	VDDA#1426	0.755857	$MET3	$L=2.002e-05
+ $W=1.96e-06	$X=632.425 $Y=198.52
Rd396	BIAS2#67	BIAS2	1.687821	$MET3	$L=3.33203e-05
+ $W=1.46e-06	$X=673.5 $Y=146.165
Rd402	VDDA#1601	VDDA#1401	0.554245	$MET3	$L=1.468e-05
+ $W=1.96e-06	$X=695.085 $Y=213.2
Rd403	VDDA#1401	VDDA#1426	0.755857	$MET3	$L=2.002e-05
+ $W=1.96e-06	$X=695.085 $Y=198.52
Rd405	XI2/net2#122	XI2/net2#106	0.962507	$MET3	$L=1.899e-05
+ $W=1.46e-06	$X=697.115 $Y=204.455
Rd406	XI2/net2#106	XI2/net2#113	1.014712	$MET3	$L=2.002e-05
+ $W=1.46e-06	$X=697.115 $Y=194.96
Rd408	XI2/net2#113	XI2/net2#126	1.020795	$MET3	$L=2.018e-05
+ $W=1.46e-06	$X=687.025 $Y=170.11
Rd409	XI2/net2#126	XI2/net2#97	0.863925	$MET3	$L=1.7085e-05
+ $W=1.46e-06	$X=676.935 $Y=170.11
Rd411	XI2/net1#120	XI2/net1#111	1.052726	$MET3	$L=2.077e-05
+ $W=1.46e-06	$X=698.895 $Y=203.565
Rd412	XI2/net1#111	XI2/net1#119	1.014712	$MET3	$L=2.002e-05
+ $W=1.46e-06	$X=698.895 $Y=193.18
Rd413	XI2/net1#119	XI2/net1#97	1.019515	$MET3	$L=2.01348e-05
+ $W=1.46e-06	$X=698.895 $Y=173.16
Re10	XI1/net2	XI1/net2#4	1.223467	$MET2	$L=4.96e-06
+ $W=3e-07	$X=23.995 $Y=53.245
Re11	XI1/net2#4	XI1/net2#24	1.613219	$MET2	$L=6.54025e-06
+ $W=3e-07	$X=18.2445 $Y=53.245
Re13	GNDA#1051	GNDA#52	1.223467	$MET2	$L=4.96e-06
+ $W=3e-07	$X=30.19 $Y=30.575
Re14	GNDA#52	GNDA#1053	1.455279	$MET2	$L=5.91975e-06
+ $W=3e-07	$X=30.19 $Y=22.665
Re15	GNDA#1053	GNDA	0.714027	$MET2	$L=3.15e-06
+ $W=3e-07	$X=28.615 $Y=19.705
Re16	GNDA	GNDA#1055	0.659761	$MET2	$L=2.93e-06
+ $W=3e-07	$X=25.575 $Y=19.705
Re17	GNDA#1055	GNDA#42	1.455279	$MET2	$L=5.91975e-06
+ $W=3e-07	$X=24.11 $Y=19.705
Re20	GNDA#42	GNDA#1059	1.223467	$MET2	$L=4.96e-06
+ $W=3e-07	$X=24.11 $Y=28.105
Re25	XI1/net17#95	XI1/net17#97	0.540035	$MET2	$L=1.06547e-05
+ $W=1.46e-06	$X=36.225 $Y=74.455
Re42	XI1/net1#58	XI1/net1#61	1.011870	$MET2	$L=6.29e-06
+ $W=4.6e-07	$X=39.255 $Y=56.355
Re45	XI1/net1#61	XI1/net1#64	0.572285	$MET2	$L=2.67e-06
+ $W=3e-07	$X=29.685 $Y=56.355
Re47	XI1/net1#64	XI1/net1#66	0.588146	$MET2	$L=7.67e-06
+ $W=9.6e-07	$X=24.515 $Y=59.295
Re50	XI1/net1#64	XI1/net1#69	0.599203	$MET2	$L=7.78025e-06
+ $W=9.6e-07	$X=28.3525 $Y=56.355
Re58	XI1/net1#69	XI1/net1#4	1.176654	$MET2	$L=9.75025e-06
+ $W=3e-07	$X=23.91 $Y=47.115
Re68	XI1/net23#32	XI1/net23#11	1.223405	$MET2	$L=4.96e-06
+ $W=3e-07	$X=57.405 $Y=23.145
Re70	XI1/net23#11	XI1/net23#35	1.223405	$MET2	$L=4.96e-06
+ $W=3e-07	$X=57.405 $Y=28.1045
Re77	XI1/net47#10	XI1/net47#6	1.223405	$MET2	$L=4.96e-06
+ $W=3e-07	$X=59.935 $Y=67.015
Re79	XI1/net47#6	XI1/net47#13	1.223405	$MET2	$L=4.96e-06
+ $W=3e-07	$X=59.935 $Y=71.9745
Re80	XI1/net47#14	XI1/net47#15	2.045792	$MET2	$L=2.654e-05
+ $W=9.6e-07	$X=33.325 $Y=121.42
Re81	XI1/net47#15	XI1/net47#16	1.012104	$MET2	$L=1.388e-05
+ $W=9.6e-07	$X=53.16 $Y=121.42
Re83	XI1/net40#28	XI1/net40#30	2.028063	$MET2	$L=2.631e-05
+ $W=9.6e-07	$X=44.79 $Y=120.14
Re84	XI1/net40#30	XI1/net40#31	0.892625	$MET2	$L=1.158e-05
+ $W=9.6e-07	$X=25.845 $Y=120.14
Re86	XI1/net30#28	XI1/net30#30	1.025979	$MET2	$L=1.331e-05
+ $W=9.6e-07	$X=49.51 $Y=118.86
Re87	XI1/net30#30	XI1/net30#31	1.757500	$MET2	$L=2.28e-05
+ $W=9.6e-07	$X=31.455 $Y=118.86
Re88	XI1/net18#28	XI1/net18#29	1.934792	$MET2	$L=2.51e-05
+ $W=9.6e-07	$X=47.925 $Y=117.58
Re89	XI1/net18#29	XI1/net18#30	1.123104	$MET2	$L=1.532e-05
+ $W=9.6e-07	$X=28.09 $Y=117.58
Re91	XI1/net17#102	XI1/net17#104	1.177063	$MET2	$L=1.527e-05
+ $W=9.6e-07	$X=46.75 $Y=116.3
Re92	XI1/net17#104	XI1/net17#105	1.469208	$MET2	$L=1.906e-05
+ $W=9.6e-07	$X=29.585 $Y=116.3
Re106	XI1/net40#32	XI1/net40#34	2.028063	$MET2	$L=2.631e-05
+ $W=9.6e-07	$X=44.79 $Y=100.78
Re107	XI1/net40#34	XI1/net40#35	0.892625	$MET2	$L=1.158e-05
+ $W=9.6e-07	$X=25.845 $Y=100.78
Re109	XI1/net30#32	XI1/net30#34	1.025979	$MET2	$L=1.331e-05
+ $W=9.6e-07	$X=49.51 $Y=99.5
Re110	XI1/net30#34	XI1/net30#35	1.757500	$MET2	$L=2.28e-05
+ $W=9.6e-07	$X=31.455 $Y=99.5
Re111	XI1/net18#31	XI1/net18#32	1.646500	$MET2	$L=2.136e-05
+ $W=9.6e-07	$X=49.795 $Y=98.22
Re112	XI1/net18#32	XI1/net18#33	1.411396	$MET2	$L=1.906e-05
+ $W=9.6e-07	$X=29.96 $Y=98.22
Re114	XI1/net17#106	XI1/net17#108	0.717646	$MET2	$L=9.31e-06
+ $W=9.6e-07	$X=49.73 $Y=96.94
Re120	XI1/net17#108	XI1/net17#114	0.775458	$MET2	$L=1.006e-05
+ $W=9.6e-07	$X=25.085 $Y=96.94
Re135	XI1/net17#115	XI1/net17#117	1.005937	$MET2	$L=1.305e-05
+ $W=9.6e-07	$X=47.86 $Y=81.54
Re139	XI1/net17#117	XI1/net17#121	0.775458	$MET2	$L=1.006e-05
+ $W=9.6e-07	$X=25.085 $Y=81.54
Re142	XI1/net24#108	XI1/net24#111	1.143783	$MET2	$L=7.11e-06
+ $W=4.6e-07	$X=25.865 $Y=76.055
Re144	XI1/net24#111	XI1/net24#113	1.241109	$MET2	$L=7.715e-06
+ $W=4.6e-07	$X=36.3175 $Y=76.055
Re146	XI1/net24#113	XI1/net24#115	1.250761	$MET2	$L=7.775e-06
+ $W=4.6e-07	$X=47.1025 $Y=76.055
Re148	XI1/net24#115	XI1/net24#117	1.194456	$MET2	$L=7.925e-06
+ $W=4.6e-07	$X=57.7425 $Y=76.055
Re149	BIAS3#5	BIAS3#1	1.223405	$MET2	$L=4.96e-06
+ $W=3e-07	$X=62.975 $Y=67.015
Re151	BIAS3#1	BIAS3#8	1.223405	$MET2	$L=4.96e-06
+ $W=3e-07	$X=62.975 $Y=71.9745
Re152	XI1/net23#36	XI1/net23#15	1.223405	$MET2	$L=4.96e-06
+ $W=3e-07	$X=63.485 $Y=23.145
Re154	XI1/net23#15	XI1/net23#39	1.223405	$MET2	$L=4.96e-06
+ $W=3e-07	$X=63.485 $Y=28.1045
Re155	XI1/net23#40	XI1/net23#19	1.223405	$MET2	$L=4.96e-06
+ $W=3e-07	$X=69.565 $Y=23.145
Re157	XI1/net23#19	XI1/net23#43	1.223405	$MET2	$L=4.96e-06
+ $W=3e-07	$X=69.565 $Y=28.1045
Re158	XI1/net23#44	XI1/net23#23	1.223405	$MET2	$L=4.96e-06
+ $W=3e-07	$X=75.645 $Y=23.145
Re160	XI1/net23#23	XI1/net23#47	1.223405	$MET2	$L=4.96e-06
+ $W=3e-07	$X=75.645 $Y=28.1045
Re162	XI1/net13#56	XI1/net13#53	1.634167	$MET2	$L=6.625e-06
+ $W=3e-07	$X=73.8125 $Y=31.035
Re163	XI1/net13#53	XI1/net13#14	2.614667	$MET2	$L=1.06e-05
+ $W=3e-07	$X=65.2 $Y=31.035
Re164	XI1/net13#14	XI1/net13#37	7.990273	$MET2	$L=3.275e-05
+ $W=3e-07	$X=43.525 $Y=31.035
Re165	XI1/net13#37	XI1/net13#61	0.588793	$MET2	$L=2.73e-06
+ $W=3e-07	$X=25.785 $Y=31.035
Re166	XI1/net13#37	XI1/net13#32	1.305113	$MET2	$L=5.41e-06
+ $W=3e-07	$X=27.15 $Y=31.035
Re167	XI1/net13#32	XI1/net13#63	1.223467	$MET2	$L=4.96e-06
+ $W=3e-07	$X=27.15 $Y=23.145
Re175	XI1/net25	XI1/net25#31	1.223467	$MET2	$L=4.96e-06
+ $W=3e-07	$X=78.685 $Y=30.575
Re176	XI1/net25#31	XI1/net25#37	1.329515	$MET2	$L=5.73975e-06
+ $W=3e-07	$X=78.685 $Y=22.755
Re181	XI1/net25#37	XI1/net25#3	1.401302	$MET2	$L=5.73975e-06
+ $W=3e-07	$X=54.365 $Y=19.885
Re183	XI1/net25#37	XI1/net25#44	1.085333	$MET2	$L=1.412e-05
+ $W=9.6e-07	$X=80.395 $Y=19.885
Re184	XI1/net25#44	XI1/net25#45	0.704542	$MET2	$L=9.18e-06
+ $W=9.6e-07	$X=75.805 $Y=34.005
Re185	XI1/net25#45	XI1/net25#22	1.016718	$MET2	$L=1.321e-05
+ $W=9.6e-07	$X=71.215 $Y=34.005
Re188	XI1/net25#37	XI1/net25#18	1.329515	$MET2	$L=5.73975e-06
+ $W=3e-07	$X=72.605 $Y=19.885
Re189	XI1/net25#18	XI1/net25#50	1.223467	$MET2	$L=4.96e-06
+ $W=3e-07	$X=72.605 $Y=28.105
Re190	XI1/net25#37	XI1/net25#14	1.329515	$MET2	$L=5.73975e-06
+ $W=3e-07	$X=66.525 $Y=19.885
Re191	XI1/net25#14	XI1/net25#52	1.223467	$MET2	$L=4.96e-06
+ $W=3e-07	$X=66.525 $Y=28.105
Re192	XI1/net25#37	XI1/net25#10	1.329515	$MET2	$L=5.73975e-06
+ $W=3e-07	$X=60.445 $Y=19.885
Re193	XI1/net25#10	XI1/net25#54	1.223467	$MET2	$L=4.96e-06
+ $W=3e-07	$X=60.445 $Y=28.105
Re194	XI1/net25#3	XI1/net25#55	1.223467	$MET2	$L=4.96e-06
+ $W=3e-07	$X=54.365 $Y=28.105
Re214	net1#84	net1#89	1.249152	$MET2	$L=7.765e-06
+ $W=4.6e-07	$X=117.0325 $Y=69.86
Re219	net1#89	net1#94	1.986739	$MET2	$L=1.239e-05
+ $W=4.6e-07	$X=106.17 $Y=69.86
Re234	XI0/net3#89	XI0/net3#94	1.477587	$MET2	$L=9.185e-06
+ $W=4.6e-07	$X=117.0325 $Y=93.1
Re238	XI0/net3#94	XI0/net3#98	0.585528	$MET2	$L=3.65975e-06
+ $W=4.6e-07	$X=105.99 $Y=93.1
Re239	XI0/net3#98	XI0/net3#99	2.162087	$MET2	$L=1.348e-05
+ $W=4.6e-07	$X=104.16 $Y=93.1
Re245	XI0/net3#99	XI0/net3#105	0.611514	$MET2	$L=1.2105e-05
+ $W=1.46e-06	$X=121.8675 $Y=74.395
Re246	XI0/net3#105	XI0/net3#106	0.938938	$MET2	$L=1.8565e-05
+ $W=1.46e-06	$X=127.92 $Y=74.395
Re251	XI0/net1#10	XI0/net1#12	0.535233	$MET2	$L=1.056e-05
+ $W=1.46e-06	$X=124.085 $Y=48.8
Re252	XI0/net1#12	XI0/net1#13	0.741521	$MET2	$L=1.463e-05
+ $W=1.46e-06	$X=111.49 $Y=48.8
Re269	XI0/net6#101	XI0/net6#102	1.508957	$MET2	$L=9.38e-06
+ $W=4.6e-07	$X=127.205 $Y=31.21
Re274	XI0/net6#102	XI0/net6#107	1.388304	$MET2	$L=9.38e-06
+ $W=4.6e-07	$X=109.24 $Y=31.21
Re289	XI0/net6#108	XI0/net6#111	0.589973	$MET2	$L=1.239e-05
+ $W=1.46e-06	$X=110.745 $Y=17.04
Re290	XI0/net2#47	XI0/net2#48	0.549931	$MET2	$L=1.085e-05
+ $W=1.46e-06	$X=126.47 $Y=15.26
Re294	XI0/net7#16	XI0/net7#17	0.741521	$MET2	$L=1.463e-05
+ $W=1.46e-06	$X=111.49 $Y=13.48
Re295	XI0/net7#17	XI0/net7#18	0.625452	$MET2	$L=1.309e-05
+ $W=1.46e-06	$X=124.975 $Y=13.48
Re296	XI0/net6#112	XI0/net6#113	0.549931	$MET2	$L=1.085e-05
+ $W=1.46e-06	$X=126.47 $Y=47.02
Re306	XI0/net14#42	XI0/net14#44	0.571219	$MET2	$L=1.127e-05
+ $W=1.46e-06	$X=137.65 $Y=139.735
Re308	XI0/net14#44	XI0/net14#46	1.027890	$MET2	$L=2.028e-05
+ $W=1.46e-06	$X=112.915 $Y=139.735
Re309	XI0/net16#222	XI0/net16#223	1.040055	$MET2	$L=2.052e-05
+ $W=1.46e-06	$X=135.555 $Y=137.955
Re311	XI0/net16#223	XI0/net16#225	0.649274	$MET2	$L=1.356e-05
+ $W=1.46e-06	$X=109.93 $Y=137.955
Re340	XI0/net16#226	XI0/net16#227	1.623174	$MET2	$L=1.009e-05
+ $W=4.6e-07	$X=140.77 $Y=121.055
Re352	XI0/net16#227	XI0/net16#239	1.216174	$MET2	$L=8.31e-06
+ $W=4.6e-07	$X=107.305 $Y=121.055
Re373	XI0/net14#47	XI0/net14#49	0.911822	$MET2	$L=1.799e-05
+ $W=1.46e-06	$X=134.29 $Y=105.795
Re375	XI0/net14#49	XI0/net14#51	0.687288	$MET2	$L=1.356e-05
+ $W=1.46e-06	$X=109.555 $Y=105.795
Re376	XI0/net16#240	XI0/net16#241	0.699452	$MET2	$L=1.38e-05
+ $W=1.46e-06	$X=138.915 $Y=104.015
Re378	XI0/net16#241	XI0/net16#243	0.989877	$MET2	$L=2.028e-05
+ $W=1.46e-06	$X=113.29 $Y=104.015
Re390	XI0/net1#14	XI0/net1#6	1.190175	$MET2	$L=1.94552e-05
+ $W=3e-07	$X=165.676 $Y=98.0695
Re394	XI0/net20#28	XI0/net20#29	0.645087	$MET2	$L=4.01e-06
+ $W=4.6e-07	$X=168.085 $Y=121.195
Re395	XI0/net20#29	XI0/net20#30	1.003826	$MET2	$L=6.24e-06
+ $W=4.6e-07	$X=162.96 $Y=121.195
Re396	XI0/net20#30	XI0/net20#7	0.772969	$MET2	$L=5.57475e-06
+ $W=4.6e-07	$X=157.0525 $Y=121.195
Re398	XI0/net20#7	XI0/net20#33	0.603515	$MET2	$L=1.601e-05
+ $W=1.96e-06	$X=154.265 $Y=121.195
Re402	XI0/net20#7	XI0/net20#37	1.190239	$MET2	$L=4.96e-06
+ $W=3e-07	$X=160.165 $Y=112.42
Re403	XI0/net20#7	XI0/net20#38	1.198532	$MET2	$L=4.96e-06
+ $W=3e-07	$X=160.165 $Y=112.42
Re410	XI0/net10#29	XI0/net10#33	2.368025	$MET2	$L=1.526e-05
+ $W=4.6e-07	$X=190.98 $Y=124.975
Re411	XI0/net10#33	XI0/net10#34	0.878385	$MET2	$L=5.48025e-06
+ $W=4.6e-07	$X=188.24 $Y=140.235
Re412	XI0/net10#34	XI0/net10#35	1.003826	$MET2	$L=6.24e-06
+ $W=4.6e-07	$X=182.38 $Y=140.235
Re415	XI0/net10#35	XI0/net10#38	0.645087	$MET2	$L=4.01e-06
+ $W=4.6e-07	$X=177.255 $Y=140.235
Re418	XI0/net12#18	XI0/net12#21	0.658952	$MET2	$L=1.30197e-05
+ $W=1.46e-06	$X=181.76 $Y=123.195
Re420	XI0/net12#21	XI0/net12#23	0.602457	$MET2	$L=3.785e-06
+ $W=4.6e-07	$X=173.685 $Y=123.19
Re421	XI0/net12#23	XI0/net12#5	1.722913	$MET2	$L=1.075e-05
+ $W=4.6e-07	$X=168.31 $Y=119.405
Re423	XI0/net12#5	XI0/net12#26	0.599545	$MET2	$L=2.46e-06
+ $W=3e-07	$X=161.705 $Y=117.975
Re424	XI0/net12#5	XI0/net12#27	0.599422	$MET2	$L=2.46e-06
+ $W=3e-07	$X=164.1645 $Y=117.975
Re432	XI0/net7#19	XI0/net7#23	1.197178	$MET2	$L=2.366e-05
+ $W=1.46e-06	$X=189.745 $Y=120.045
Re433	XI0/net7#23	XI0/net7#24	1.052738	$MET2	$L=2.14503e-05
+ $W=1.46e-06	$X=177.915 $Y=120.045
Re436	XI0/net21#25	XI0/net21#27	0.764898	$MET2	$L=4.77475e-06
+ $W=4.6e-07	$X=203.7675 $Y=133.63
Re437	XI0/net21#27	XI0/net21#28	0.937065	$MET2	$L=5.865e-06
+ $W=4.6e-07	$X=201.38 $Y=133.63
Re439	XI0/net21#28	XI0/net21#30	0.569478	$MET2	$L=3.54e-06
+ $W=4.6e-07	$X=196.615 $Y=139.495
Re440	XI0/net15#217	XI0/net15#218	0.926521	$MET2	$L=1.828e-05
+ $W=1.46e-06	$X=198.88 $Y=92.6
Re441	XI0/net15#218	XI0/net15#219	0.632548	$MET2	$L=1.248e-05
+ $W=1.46e-06	$X=183.5 $Y=92.6
Re442	XI0/net15#219	XI0/net15#220	0.632548	$MET2	$L=1.248e-05
+ $W=1.46e-06	$X=171.02 $Y=92.6
Re443	XI0/net15#220	XI0/net15#221	0.632548	$MET2	$L=1.248e-05
+ $W=1.46e-06	$X=158.54 $Y=92.6
Re444	XI0/net15#221	XI0/net15#222	0.840356	$MET2	$L=1.758e-05
+ $W=1.46e-06	$X=144.01 $Y=92.6
Re460	XI0/net15#223	XI0/net15#224	0.610247	$MET2	$L=1.204e-05
+ $W=1.46e-06	$X=202 $Y=59.8
Re461	XI0/net15#224	XI0/net15#225	0.632548	$MET2	$L=1.248e-05
+ $W=1.46e-06	$X=189.74 $Y=59.8
Re462	XI0/net15#225	XI0/net15#226	0.632548	$MET2	$L=1.248e-05
+ $W=1.46e-06	$X=177.26 $Y=59.8
Re463	XI0/net15#226	XI0/net15#227	0.632548	$MET2	$L=1.248e-05
+ $W=1.46e-06	$X=164.78 $Y=59.8
Re464	XI0/net15#227	XI0/net15#228	1.156630	$MET2	$L=2.382e-05
+ $W=1.46e-06	$X=147.13 $Y=59.8
Re465	XI0/net17#133	XI0/net17#134	0.891041	$MET2	$L=1.758e-05
+ $W=1.46e-06	$X=143.51 $Y=58.02
Re466	XI0/net17#134	XI0/net17#135	0.632548	$MET2	$L=1.248e-05
+ $W=1.46e-06	$X=158.54 $Y=58.02
Re467	XI0/net17#135	XI0/net17#136	0.632548	$MET2	$L=1.248e-05
+ $W=1.46e-06	$X=171.02 $Y=58.02
Re468	XI0/net17#136	XI0/net17#137	0.632548	$MET2	$L=1.248e-05
+ $W=1.46e-06	$X=183.5 $Y=58.02
Re469	XI0/net17#137	XI0/net17#138	0.875836	$MET2	$L=1.828e-05
+ $W=1.46e-06	$X=198.38 $Y=58.02
Re485	XI0/A#167	XI0/A#183	0.565644	$MET2	$L=1.12e-05
+ $W=1.46e-06	$X=132.485 $Y=89.04
Re489	XI0/net15#229	XI0/net15#230	0.574260	$MET2	$L=1.133e-05
+ $W=1.46e-06	$X=203.32 $Y=45.645
Re490	XI0/net15#230	XI0/net15#231	0.632548	$MET2	$L=1.248e-05
+ $W=1.46e-06	$X=191.415 $Y=45.645
Re491	XI0/net15#231	XI0/net15#232	0.632548	$MET2	$L=1.248e-05
+ $W=1.46e-06	$X=178.935 $Y=45.645
Re492	XI0/net15#232	XI0/net15#233	0.632548	$MET2	$L=1.248e-05
+ $W=1.46e-06	$X=166.455 $Y=45.645
Re493	XI0/net15#233	XI0/net15#228	1.120644	$MET2	$L=2.311e-05
+ $W=1.46e-06	$X=149.16 $Y=45.645
Re494	XI0/net17#139	XI0/net17#140	0.855055	$MET2	$L=1.687e-05
+ $W=1.46e-06	$X=145.54 $Y=43.865
Re495	XI0/net17#140	XI0/net17#141	0.632548	$MET2	$L=1.248e-05
+ $W=1.46e-06	$X=160.215 $Y=43.865
Re496	XI0/net17#141	XI0/net17#142	0.632548	$MET2	$L=1.248e-05
+ $W=1.46e-06	$X=172.695 $Y=43.865
Re497	XI0/net17#142	XI0/net17#143	0.632548	$MET2	$L=1.248e-05
+ $W=1.46e-06	$X=185.175 $Y=43.865
Re498	XI0/net17#143	XI0/net17#138	0.839849	$MET2	$L=1.757e-05
+ $W=1.46e-06	$X=199.7 $Y=43.865
Re514	XI0/net15#235	XI0/net15#236	2.268261	$MET2	$L=1.41e-05
+ $W=4.6e-07	$X=201.935 $Y=29.755
Re515	XI0/net15#236	XI0/net15#237	1.003826	$MET2	$L=6.24e-06
+ $W=4.6e-07	$X=191.765 $Y=29.755
Re516	XI0/net15#237	XI0/net15#238	1.003826	$MET2	$L=6.24e-06
+ $W=4.6e-07	$X=185.525 $Y=29.755
Re517	XI0/net15#238	XI0/net15#239	1.003826	$MET2	$L=6.24e-06
+ $W=4.6e-07	$X=179.285 $Y=29.755
Re518	XI0/net15#239	XI0/net15#240	1.003826	$MET2	$L=6.24e-06
+ $W=4.6e-07	$X=173.045 $Y=29.755
Re519	XI0/net15#240	XI0/net15#241	1.003826	$MET2	$L=6.24e-06
+ $W=4.6e-07	$X=166.805 $Y=29.755
Re520	XI0/net15#241	XI0/net15#242	1.003826	$MET2	$L=6.24e-06
+ $W=4.6e-07	$X=160.565 $Y=29.755
[...]
C5092	XI2/net2#118	GNDA	3.41514e-15	$X=663.1745 $Y=174.939
C5093	XI2/net2#119	GNDA	4.30624e-15	$X=648.349 $Y=174.939
C5094	XI2/net1#114	GNDA	2.90052e-15	$X=636.4435 $Y=173.159
C5095	XI2/net1#115	GNDA	1.20631e-15	$X=646.7285 $Y=173.159
C5096	XI2/net1#116	GNDA	2.34462e-15	$X=656.6935 $Y=173.159
C5097	XI2/net1#117	GNDA	2.34462e-15	$X=669.6535 $Y=173.159
C5098	XI2/net1#118	GNDA	2.94814e-15	$X=683.3785 $Y=173.159
C5099	XI2/net4#468	GNDA	1.60512e-15	$X=604.1115 $Y=186.1465
C5100	XI2/net4#467	GNDA	7.94364e-16	$X=620.262 $Y=187.914
C5101	XI2/net4#466	GNDA	7.09632e-17	$X=626.5645 $Y=191.056
C5102	XI2/net4#465	GNDA	1.18355e-15	$X=628.358 $Y=192.0095
C5103	XI2/net4#464	GNDA	5.60427e-16	$X=629.049 $Y=207.095
C5104	XI2/net4#495	GNDA	1.08097e-16	$X=489.4035 $Y=190.784
C5105	XI2/net4#491	GNDA	1.66992e-15	$X=693.0395 $Y=192.0095
C5106	XI2/net4#447	GNDA	2.75635e-16	$X=694.3045 $Y=212.0295
C5107	XI2/net4#448	GNDA	3.88694e-17	$X=687.7 $Y=212.0295
C5108	XI2/net4#449	GNDA	7.15384e-17	$X=684.815 $Y=212.0295
C5109	XI2/net4#450	GNDA	7.15384e-17	$X=681.575 $Y=212.0295
C5110	XI2/net4#451	GNDA	7.15384e-17	$X=678.335 $Y=212.0295
C5111	XI2/net4#452	GNDA	7.15384e-17	$X=675.095 $Y=212.0295
C5112	XI2/net4#453	GNDA	7.15384e-17	$X=671.855 $Y=212.0295
C5113	XI2/net4#454	GNDA	7.15384e-17	$X=668.615 $Y=212.0295
C5114	XI2/net4#455	GNDA	7.1535e-17	$X=665.375 $Y=212.0295
C5115	XI2/net4#456	GNDA	4.18499e-17	$X=662.135 $Y=212.0295
C5116	XI2/net4#457	GNDA	4.18499e-17	$X=658.895 $Y=212.0295
C5117	XI2/net4#458	GNDA	4.18499e-17	$X=655.655 $Y=212.0295
C5118	XI2/net4#459	GNDA	4.18499e-17	$X=652.415 $Y=212.0295
C5119	XI2/net4#460	GNDA	4.18499e-17	$X=649.175 $Y=212.0295
C5120	XI2/net4#461	GNDA	4.18499e-17	$X=645.935 $Y=212.0295
C5121	XI2/net4#462	GNDA	4.18499e-17	$X=642.695 $Y=212.0295
C5122	XI2/net4#463	GNDA	1.06624e-16	$X=637.4685 $Y=212.029
C5123	XI2/net4#471	GNDA	1.63311e-16	$X=571.507 $Y=190.784
C5124	XI2/net4#472	GNDA	9.2913e-17	$X=548.0195 $Y=190.784
C5125	XI2/net4#473	GNDA	4.40701e-17	$X=525.5395 $Y=190.784
C5126	XI2/net4#474	GNDA	2.2035e-17	$X=508.564 $Y=190.784
C5127	XI2/net4#475	GNDA	8.8584e-16	$X=637.4675 $Y=192.009
C5128	XI2/net4#476	GNDA	4.06638e-16	$X=642.694 $Y=192.0095
C5129	XI2/net4#477	GNDA	4.11496e-16	$X=645.934 $Y=192.0095
C5130	XI2/net4#478	GNDA	4.17921e-16	$X=649.174 $Y=192.0095
C5131	XI2/net4#479	GNDA	4.17921e-16	$X=652.414 $Y=192.0095
C5132	XI2/net4#480	GNDA	4.06638e-16	$X=655.654 $Y=192.0095
C5133	XI2/net4#481	GNDA	4.11895e-16	$X=658.894 $Y=192.0095
C5134	XI2/net4#482	GNDA	4.06638e-16	$X=662.134 $Y=192.0095
C5135	XI2/net4#483	GNDA	4.17921e-16	$X=665.374 $Y=192.0095
C5136	XI2/net4#484	GNDA	4.06638e-16	$X=668.614 $Y=192.0095
C5137	XI2/net4#485	GNDA	4.11895e-16	$X=671.854 $Y=192.0095
C5138	XI2/net4#486	GNDA	4.06638e-16	$X=675.094 $Y=192.0095
C5139	XI2/net4#487	GNDA	4.17921e-16	$X=678.334 $Y=192.0095
C5140	XI2/net4#488	GNDA	4.06638e-16	$X=681.574 $Y=192.0095
C5141	XI2/net4#489	GNDA	4.11496e-16	$X=684.814 $Y=192.0095
C5142	VDDA#1572	GNDA	2.544e-15	$X=63.9345 $Y=54.6795
C5143	VDDA#1581	GNDA	1.70768e-15	$X=477.756 $Y=143.249
C5144	VDDA#1592	GNDA	1.60669e-15	$X=603.334 $Y=195.5
C5145	VDDA#1601	GNDA	1.48116e-15	$X=688.391 $Y=211.5515
C5146	XI1/net24#1	GNDA	7.84894e-16	$X=19.2695 $Y=68.172
C5147	XI1/net24#4	GNDA	7.8279e-16	$X=22.3095 $Y=68.172
C5148	XI1/net2#5	GNDA	4.68651e-17	$X=16.531 $Y=54.4545
C5149	XI1/net1#5	GNDA	1.81434e-16	$X=16.531 $Y=48.3245
C5150	XI1/net13#3	GNDA	5.63222e-16	$X=27.1495 $Y=31.0345
C5151	XI1/net24#7	GNDA	4.97497e-16	$X=29.4195 $Y=68.172
C5152	XI1/net24#10	GNDA	4.96397e-16	$X=32.4595 $Y=68.172
C5153	XI1/net1#6	GNDA	5.91337e-16	$X=33.0695 $Y=48.932
C5154	XI1/net1#9	GNDA	5.05113e-16	$X=36.1095 $Y=48.932
C5155	XI1/net24#13	GNDA	7.64295e-16	$X=40.1745 $Y=68.172
C5156	XI1/net1#12	GNDA	7.9187e-16	$X=42.3995 $Y=48.932
C5157	XI1/net24#16	GNDA	7.48249e-16	$X=43.2145 $Y=68.172
C5158	XI1/net1#15	GNDA	8.81473e-16	$X=45.4395 $Y=48.932
C5159	XI1/net24#19	GNDA	7.64295e-16	$X=50.9895 $Y=68.172
C5160	XI1/net24#22	GNDA	7.68237e-16	$X=54.0295 $Y=68.172
C5161	XI1/net24#25	GNDA	6.7054e-16	$X=61.4545 $Y=68.172
C5162	XI1/net13#10	GNDA	3.33735e-16	$X=55.8845 $Y=29.735
C5163	XI1/net13#12	GNDA	3.08829e-16	$X=61.9645 $Y=29.7355
C5164	XI1/net13#13	GNDA	2.9955e-16	$X=65.0045 $Y=29.7355
C5165	XI1/net13#15	GNDA	2.9955e-16	$X=71.0845 $Y=29.7355
C5166	VDDA#43	GNDA	1.34282e-16	$X=108.8445 $Y=113.1715
C5167	XI0/net3#4	GNDA	2.3274e-16	$X=109.3595 $Y=85.217
C5168	net1#4	GNDA	2.28728e-16	$X=110.0695 $Y=62.437
C5169	XI0/net3#7	GNDA	2.32735e-16	$X=110.8995 $Y=85.217
C5170	XI0/net16#4	GNDA	5.05701e-16	$X=111.0845 $Y=113.1715
C5171	net1#7	GNDA	2.32215e-16	$X=111.6095 $Y=62.437
C5172	XI0/net3#10	GNDA	2.88376e-16	$X=112.4395 $Y=85.217
C5173	net1#10	GNDA	2.87856e-16	$X=113.1495 $Y=62.437
C5174	XI0/net16#10	GNDA	4.90979e-16	$X=113.3245 $Y=113.1715
C5175	XI0/net6#4	GNDA	4.88525e-16	$X=113.5545 $Y=23.787
C5176	XI0/net16#16	GNDA	4.90979e-16	$X=115.5645 $Y=113.1715
C5177	XI0/net6#10	GNDA	3.23405e-16	$X=115.7945 $Y=23.787
C5178	XI0/net16#22	GNDA	4.90979e-16	$X=117.8045 $Y=113.1715
C5179	XI0/net6#16	GNDA	4.67418e-16	$X=118.0345 $Y=23.787
C5180	XI0/net16#28	GNDA	4.73479e-16	$X=120.0445 $Y=113.1715
C5181	XI0/net6#22	GNDA	4.73803e-16	$X=120.2745 $Y=23.787
C5182	net1#13	GNDA	4.83209e-16	$X=120.9145 $Y=62.577
C5183	XI0/net3#13	GNDA	4.82354e-16	$X=121.6245 $Y=85.217
C5184	XI0/net16#34	GNDA	3.23081e-16	$X=122.2845 $Y=113.1715
C5185	net1#16	GNDA	4.19727e-16	$X=122.4545 $Y=62.577
C5186	XI0/net6#28	GNDA	3.38127e-16	$X=122.5145 $Y=23.787
C5187	XI0/net3#16	GNDA	4.40477e-16	$X=123.1645 $Y=85.217
C5188	net1#19	GNDA	4.16874e-16	$X=123.9945 $Y=62.577
C5189	XI0/net16#40	GNDA	4.67094e-16	$X=124.5245 $Y=113.1715
C5190	XI0/net3#19	GNDA	4.32174e-16	$X=124.7045 $Y=85.217
C5191	net1#22	GNDA	4.75295e-16	$X=125.5345 $Y=62.577
C5192	XI0/net3#22	GNDA	4.8949e-16	$X=126.2445 $Y=85.217
C5193	XI0/net16#46	GNDA	4.90979e-16	$X=126.7645 $Y=113.1715
C5194	XI0/net16#52	GNDA	4.73479e-16	$X=129.0045 $Y=113.1715
C5195	XI0/net16#58	GNDA	3.23081e-16	$X=131.2445 $Y=113.1715
C5196	XI0/net16#64	GNDA	4.67094e-16	$X=133.4845 $Y=113.1715
C5197	XI0/net16#70	GNDA	5.05701e-16	$X=135.7245 $Y=113.1715
C5198	VDDA#61	GNDA	1.34282e-16	$X=137.9645 $Y=113.1715
C5199	XI0/A#4	GNDA	3.18469e-16	$X=143.2895 $Y=67.177
C5200	XI0/net15#4	GNDA	7.70733e-16	$X=151.2045 $Y=22.332
C5201	XI0/net23#4	GNDA	1.04322e-15	$X=155.7695 $Y=67.177
C5202	XI0/net15#10	GNDA	9.78848e-16	$X=157.4445 $Y=22.332
C5203	XI0/net11#7	GNDA	1.04322e-15	$X=162.0095 $Y=67.177
C5204	XI0/net23#10	GNDA	1.04322e-15	$X=168.2495 $Y=67.177
C5205	XI0/net15#22	GNDA	9.78849e-16	$X=169.9245 $Y=22.332
C5206	XI0/net11#13	GNDA	1.04322e-15	$X=174.4895 $Y=67.177
C5207	XI0/net15#28	GNDA	7.58724e-16	$X=176.1645 $Y=22.332
C5208	XI0/net23#16	GNDA	1.04322e-15	$X=180.7295 $Y=67.177
C5209	XI0/net15#34	GNDA	9.78849e-16	$X=182.4045 $Y=22.332
C5210	XI0/net10#4	GNDA	1.08867e-15	$X=185.4995 $Y=132.3515
C5211	XI0/net23#22	GNDA	1.0424e-15	$X=193.2095 $Y=67.177
C5212	XI0/net17#4	GNDA	4.23431e-16	$X=195.5145 $Y=110.2065
C5213	BGAP_REF#1	GNDA	5.47728e-16	$X=196.1445 $Y=132.2115
C5214	XI0/net15#46	GNDA	9.90857e-16	$X=194.8845 $Y=22.332
C5215	XI0/net17#7	GNDA	4.23431e-16	$X=197.0545 $Y=110.2065
C5216	XI0/net17#10	GNDA	4.99676e-16	$X=198.5945 $Y=110.2065
C5217	XI0/A#10	GNDA	3.60111e-16	$X=199.4495 $Y=67.177
C5218	VDDA#88	GNDA	2.76416e-16	$X=208.8795 $Y=137.8265
C5219	XI0/net21#4	GNDA	2.92709e-16	$X=208.8795 $Y=130.7715
C5220	VDDA#187	GNDA	2.1403e-16	$X=486.3105 $Y=204.598
C5221	VDDA#191	GNDA	1.49346e-16	$X=486.549 $Y=187.2875
C5222	net2#4	GNDA	3.52613e-16	$X=490.624 $Y=62.717
C5223	net2#7	GNDA	3.52613e-16	$X=493.164 $Y=62.717
C5224	net2#10	GNDA	3.52613e-16	$X=495.704 $Y=62.717
C5225	XI2/net123#4	GNDA	1.04937e-15	$X=496.259 $Y=22.382
C5226	net2#13	GNDA	3.52613e-16	$X=498.244 $Y=62.717
C5227	net2#16	GNDA	3.52613e-16	$X=500.784 $Y=62.717
C5228	XI2/net6#5	GNDA	1.12407e-16	$X=497.789 $Y=187.5495
C5229	XI2/net123#7	GNDA	9.95752e-16	$X=502.499 $Y=38.472
C5230	XI2/net123#10	GNDA	7.73994e-16	$X=502.499 $Y=22.382
C5231	net2#22	GNDA	4.54335e-16	$X=505.864 $Y=62.717
C5232	XI2/net123#13	GNDA	7.76841e-16	$X=508.739 $Y=38.472
C5233	XI2/net123#16	GNDA	9.95752e-16	$X=508.739 $Y=22.382
C5234	net2#25	GNDA	6.61038e-16	$X=513.019 $Y=62.497
C5235	XI2/net6#9	GNDA	6.00308e-17	$X=509.029 $Y=204.8015
C5236	XI2/net6#13	GNDA	1.20705e-16	$X=509.029 $Y=187.5495
C5237	net2#28	GNDA	5.49287e-16	$X=515.559 $Y=62.497
C5238	XI2/net123#19	GNDA	1.00854e-15	$X=514.979 $Y=38.472
C5239	XI2/net123#22	GNDA	7.73994e-16	$X=514.979 $Y=22.382
C5240	net2#31	GNDA	5.49287e-16	$X=518.099 $Y=62.497
C5241	net2#34	GNDA	5.49287e-16	$X=520.639 $Y=62.497
C5242	XI2/net123#25	GNDA	1.01105e-15	$X=521.219 $Y=22.382
C5243	net2#37	GNDA	5.49287e-16	$X=523.179 $Y=62.497
C5244	XI2/net6#17	GNDA	1.18571e-16	$X=520.269 $Y=204.8015
C5245	XI2/net6#21	GNDA	5.5406e-17	$X=520.269 $Y=187.5495
C5246	net2#40	GNDA	5.49287e-16	$X=525.719 $Y=62.497
C5247	net2#46	GNDA	7.08626e-16	$X=530.799 $Y=62.497
C5248	XI2/net6#25	GNDA	5.32713e-17	$X=531.509 $Y=204.8015
C5249	XI2/net6#29	GNDA	1.20705e-16	$X=531.509 $Y=187.5495
C5250	XI2/net6#33	GNDA	1.18571e-16	$X=542.749 $Y=204.8015
C5251	XI2/net6#37	GNDA	1.04249e-16	$X=542.749 $Y=187.5495
C5252	XI2/net6#41	GNDA	5.32713e-17	$X=553.989 $Y=204.8015
C5253	XI2/net6#45	GNDA	1.20705e-16	$X=553.989 $Y=187.5495
C5254	XI2/net6#49	GNDA	1.20104e-16	$X=565.229 $Y=204.8015
C5255	XI2/net6#53	GNDA	1.04249e-16	$X=565.229 $Y=187.5495
C5256	XI2/net6#57	GNDA	7.23884e-17	$X=576.469 $Y=204.8015
C5257	XI2/net6#61	GNDA	1.88665e-16	$X=576.469 $Y=187.5495
C5258	VDDA#195	GNDA	1.64941e-16	$X=587.4825 $Y=204.598
C5259	VDDA#199	GNDA	2.35434e-16	$X=587.709 $Y=187.2875
C5260	XI2/net102#4	GNDA	4.22674e-16	$X=611.139 $Y=198.4265
C5261	XI2/net7#4	GNDA	4.5808e-16	$X=620.699 $Y=198.4265
C5262	XI2/net7#7	GNDA	4.85228e-16	$X=632.379 $Y=158.6215
C5263	XI2/net7#10	GNDA	4.23904e-16	$X=633.919 $Y=158.6215
C5264	XI2/net7#13	GNDA	4.20742e-16	$X=635.459 $Y=158.6215
C5265	VDDA#203	GNDA	1.10921e-16	$X=636.214 $Y=204.2565
C5266	VDDA#206	GNDA	9.46353e-17	$X=636.214 $Y=184.2365
C5267	XI2/net7#16	GNDA	4.20742e-16	$X=636.999 $Y=158.6215
C5268	XI2/net7#19	GNDA	4.20742e-16	$X=638.539 $Y=158.6215
C5269	XI2/net4#4	GNDA	2.54133e-16	$X=639.454 $Y=184.2365
C5270	XI2/net7#22	GNDA	4.20742e-16	$X=640.079 $Y=158.6215
C5271	XI2/net7#25	GNDA	4.20742e-16	$X=641.619 $Y=158.6215
C5272	XI2/net7#28	GNDA	4.20742e-16	$X=643.159 $Y=158.6215
C5273	XI2/net4#7	GNDA	2.67955e-16	$X=642.694 $Y=204.2565
C5274	XI2/net4#10	GNDA	2.67955e-16	$X=642.694 $Y=184.2365
C5275	XI2/net7#31	GNDA	4.20742e-16	$X=644.699 $Y=158.6215
C5276	XI2/net7#34	GNDA	4.20742e-16	$X=646.239 $Y=158.6215
C5277	XI2/net4#13	GNDA	2.67955e-16	$X=645.934 $Y=204.2565
C5278	XI2/net4#16	GNDA	2.67955e-16	$X=645.934 $Y=184.2365
C5279	XI2/net7#37	GNDA	4.23904e-16	$X=647.779 $Y=158.6215
C5280	XI2/net4#25	GNDA	2.67955e-16	$X=652.414 $Y=204.2565
C5281	XI2/net4#28	GNDA	2.67955e-16	$X=652.414 $Y=184.2365
C5282	XI2/net4#31	GNDA	2.67955e-16	$X=655.654 $Y=204.2565
C5283	XI2/net4#34	GNDA	2.67955e-16	$X=655.654 $Y=184.2365
C5284	XI2/net7#43	GNDA	4.65781e-16	$X=659.319 $Y=158.6215
C5285	XI2/net4#37	GNDA	2.67955e-16	$X=658.894 $Y=204.2565
C5286	XI2/net4#40	GNDA	2.67955e-16	$X=658.894 $Y=184.2365
C5287	XI2/net7#46	GNDA	4.23904e-16	$X=660.859 $Y=158.6215
C5288	XI2/net7#49	GNDA	4.20742e-16	$X=662.399 $Y=158.6215
C5289	XI2/net4#43	GNDA	2.67955e-16	$X=662.134 $Y=204.2565
C5290	XI2/net4#46	GNDA	2.67955e-16	$X=662.134 $Y=184.2365
C5291	XI2/net7#52	GNDA	4.26687e-16	$X=663.939 $Y=158.6215
C5292	XI2/net7#55	GNDA	4.33826e-16	$X=665.479 $Y=158.6215
C5293	XI2/net4#49	GNDA	2.67955e-16	$X=665.374 $Y=204.2565
C5294	XI2/net4#52	GNDA	2.67955e-16	$X=665.374 $Y=184.2365
C5295	XI2/net7#58	GNDA	4.33727e-16	$X=667.019 $Y=158.6215
C5296	XI2/net7#61	GNDA	4.26816e-16	$X=668.559 $Y=158.6215
C5297	XI2/net4#55	GNDA	2.67955e-16	$X=668.614 $Y=204.2565
C5298	XI2/net4#58	GNDA	2.67955e-16	$X=668.614 $Y=184.2365
C5299	XI2/net7#64	GNDA	4.20742e-16	$X=670.099 $Y=158.6215
C5300	XI2/net7#67	GNDA	4.23904e-16	$X=671.639 $Y=158.6215
C5301	XI2/net4#61	GNDA	2.67955e-16	$X=671.854 $Y=204.2565
C5302	XI2/net4#64	GNDA	2.67955e-16	$X=671.854 $Y=184.2365
C5303	XI2/net7#70	GNDA	4.76154e-16	$X=673.179 $Y=158.6215
C5304	XI2/net4#67	GNDA	2.67955e-16	$X=675.094 $Y=204.2565
C5305	XI2/net4#70	GNDA	2.67955e-16	$X=675.094 $Y=184.2365
C5306	XI2/net4#73	GNDA	2.67955e-16	$X=678.334 $Y=204.2565
C5307	XI2/net4#76	GNDA	2.67955e-16	$X=678.334 $Y=184.2365
C5308	XI2/net4#79	GNDA	2.67955e-16	$X=681.574 $Y=204.2565
C5309	XI2/net4#82	GNDA	2.67955e-16	$X=681.574 $Y=184.2365
C5310	XI2/net7#73	GNDA	4.65781e-16	$X=683.229 $Y=158.6215
C5311	XI2/net7#76	GNDA	4.23904e-16	$X=684.769 $Y=158.6215
C5312	XI2/net4#85	GNDA	2.67955e-16	$X=684.814 $Y=204.2565
C5313	XI2/net4#88	GNDA	2.67955e-16	$X=684.814 $Y=184.2365
C5314	XI2/net7#79	GNDA	4.20742e-16	$X=686.309 $Y=158.6215
C5315	XI2/net7#82	GNDA	4.20742e-16	$X=687.849 $Y=158.6215
C5316	XI2/net4#91	GNDA	2.80586e-16	$X=688.054 $Y=204.2565
C5317	XI2/net4#94	GNDA	2.80586e-16	$X=688.054 $Y=184.2365
C5318	XI2/net7#85	GNDA	4.20742e-16	$X=689.389 $Y=158.6215
C5319	XI2/net7#88	GNDA	4.20742e-16	$X=690.929 $Y=158.6215
C5320	VDDA#209	GNDA	1.1355e-16	$X=691.294 $Y=204.2565
C5321	VDDA#212	GNDA	1.14732e-16	$X=691.294 $Y=184.2365
C5322	XI2/net7#91	GNDA	4.20742e-16	$X=692.469 $Y=158.6215
C5323	XI2/net7#94	GNDA	4.20742e-16	$X=694.009 $Y=158.6215
C5324	XI2/net7#97	GNDA	4.37596e-16	$X=695.549 $Y=158.6215
C5325	XI2/net7#100	GNDA	4.8522e-16	$X=697.089 $Y=158.6215
C5326	VDDA#1604	GNDA	2.23983e-15	$X=22.5845 $Y=87.849
C5327	XI1/net18#34	GNDA	3.05443e-15	$X=20.8045 $Y=114.91
C5328	XI1/net18#36	GNDA	4.00484e-15	$X=20.8045 $Y=98.3185
C5329	XI1/net24#126	GNDA	3.36064e-16	$X=39.4045 $Y=49.9595
C5330	VDDA#1609	GNDA	2.11026e-15	$X=52.6045 $Y=87.849
C5331	XI1/net17#122	GNDA	4.32638e-15	$X=54.3845 $Y=114.27
C5332	XI1/net17#124	GNDA	4.7874e-15	$X=54.3845 $Y=97.93
C5333	XI1/net17#125	GNDA	4.36877e-15	$X=54.3845 $Y=83.6845
C5334	XI1/net30#36	GNDA	3.62911e-15	$X=56.1645 $Y=115.55
C5335	XI1/net30#38	GNDA	5.67968e-15	$X=56.1645 $Y=98.7975
C5336	XI1/net40#38	GNDA	6.55829e-15	$X=57.9445 $Y=98.43
C5337	XI1/net40#39	GNDA	3.30243e-15	$X=57.9445 $Y=116.1895
C5338	XI1/net47#17	GNDA	4.61717e-15	$X=59.7245 $Y=110.13
C5339	XI1/net47#19	GNDA	4.75899e-15	$X=59.7845 $Y=86.5935
C5340	XI1/net23#54	GNDA	1.67061e-15	$X=42.0695 $Y=25.3665
C5341	XI1/net23#50	GNDA	3.10584e-15	$X=66.5245 $Y=19.8845
C5342	XI1/net23#62	GNDA	3.37077e-16	$X=57.4045 $Y=25.5595
C5343	XI1/net23#60	GNDA	3.06722e-16	$X=63.4845 $Y=25.5595
C5344	XI1/net23#58	GNDA	3.06688e-16	$X=69.5645 $Y=25.5595
C5345	XI1/net23#48	GNDA	2.96564e-17	$X=75.6445 $Y=30.555
C5346	BIAS3#11	GNDA	1.31359e-16	$X=62.9745 $Y=65.592
C5347	BIAS3#12	GNDA	1.14925e-16	$X=62.9745 $Y=73.4065
C5348	XI0/net6#124	GNDA	2.56979e-15	$X=104.9245 $Y=31.62
C5349	XI0/net16#246	GNDA	2.87149e-15	$X=103.5245 $Y=121.0195
C5350	XI0/net15#257	GNDA	2.69618e-15	$X=138.1045 $Y=30.185
C5351	XI0/net14#55	GNDA	2.50597e-15	$X=124.9725 $Y=99.7695
C5352	XI0/net1#20	GNDA	7.18855e-15	$X=129.3645 $Y=85.377
C5353	XI0/net1#18	GNDA	1.00849e-14	$X=129.3645 $Y=30.4385
C5354	XI0/net7#28	GNDA	1.20062e-14	$X=131.145 $Y=74.9425
C5355	XI0/net11#123	GNDA	4.44666e-15	$X=182.3015 $Y=105.3945
C5356	XI0/net11#124	GNDA	4.44997e-15	$X=200.637 $Y=105.3945
C5357	XI0/net11#125	GNDA	1.63555e-15	$X=210.5545 $Y=83.3305
C5358	XI0/net11#131	GNDA	4.62391e-15	$X=371.9165 $Y=96.3645
C5359	XI0/net11#132	GNDA	2.56275e-15	$X=393.504 $Y=77.3105
C5360	net2#205	GNDA	4.59545e-15	$X=92.515 $Y=45.6595
C5361	net2#204	GNDA	2.27274e-14	$X=188.3685 $Y=6.1355
C5362	net2#203	GNDA	2.09411e-14	$X=378.572 $Y=6.1355
C5363	XI2/net123#150	GNDA	1.7319e-15	$X=483.409 $Y=17.5965
C5364	XI2/net123#152	GNDA	2.95401e-15	$X=483.409 $Y=29.9515
C5365	XI2/net123#153	GNDA	2.17747e-15	$X=483.409 $Y=44.7975
C5366	XI2/net5#70	GNDA	2.62705e-15	$X=535.849 $Y=39.505
C5367	XI2/net5#71	GNDA	1.29486e-15	$X=535.849 $Y=27.3675
C5368	XI2/net5#72	GNDA	1.70585e-15	$X=535.849 $Y=18.237
C5369	XI2/net4#496	GNDA	5.63702e-15	$X=492.443 $Y=149.774
C5370	XI2/net6#340	GNDA	9.28442e-15	$X=526.731 $Y=148.439
C5371	XI2/COM#652	GNDA	1.62726e-14	$X=509.428 $Y=123.7835
C5372	XI2/net4#506	GNDA	3.79454e-15	$X=480.066 $Y=122.5685
C5373	XI2/net4#508	GNDA	8.01877e-15	$X=527.906 $Y=122.569
C5374	XI2/net6#350	GNDA	2.83283e-15	$X=539.109 $Y=121.234
C5375	XI2/net6#352	GNDA	2.96284e-15	$X=508.7445 $Y=117.0245
C5376	BGAP_REF#348	GNDA	1.12937e-14	$X=393.104 $Y=144.314
C5377	BGAP_REF#347	GNDA	3.80361e-15	$X=449.7945 $Y=145.934
C5378	BGAP_REF#330	GNDA	1.92555e-15	$X=537.21 $Y=135.8945
C5379	BGAP_REF#331	GNDA	3.64041e-16	$X=530.9775 $Y=135.8945
C5380	BGAP_REF#332	GNDA	1.11769e-15	$X=526.5845 $Y=135.894
C5381	BGAP_REF#334	GNDA	1.11769e-15	$X=519.7845 $Y=135.894
C5382	BGAP_REF#336	GNDA	1.11769e-15	$X=512.9845 $Y=135.894
C5383	BGAP_REF#338	GNDA	1.11769e-15	$X=506.1845 $Y=135.894
C5384	BGAP_REF#340	GNDA	1.11769e-15	$X=499.3845 $Y=135.894
C5385	BGAP_REF#342	GNDA	1.11769e-15	$X=492.5845 $Y=135.894
C5386	BGAP_REF#344	GNDA	1.66218e-15	$X=484.4455 $Y=135.8945
C5387	BGAP_REF#345	GNDA	1.54222e-15	$X=470.929 $Y=135.874
C5388	RES_BIAS#239	GNDA	1.45309e-15	$X=549.634 $Y=139.5575
C5389	RES_BIAS#224	GNDA	2.003e-15	$X=481.803 $Y=135.114
C5390	RES_BIAS#225	GNDA	8.59118e-16	$X=489.736 $Y=135.1145
C5391	RES_BIAS#227	GNDA	1.12346e-15	$X=495.6735 $Y=135.114
C5392	RES_BIAS#229	GNDA	1.12346e-15	$X=502.4735 $Y=135.114
C5393	RES_BIAS#231	GNDA	1.12346e-15	$X=509.2735 $Y=135.114
C5394	RES_BIAS#233	GNDA	1.12346e-15	$X=516.0735 $Y=135.114
C5395	RES_BIAS#235	GNDA	1.12346e-15	$X=522.8735 $Y=135.114
C5396	RES_BIAS#237	GNDA	2.52672e-15	$X=533.3495 $Y=135.1145
C5397	VDDA#1628	GNDA	3.19595e-16	$X=479.7615 $Y=208.139
C5398	VDDA#1633	GNDA	3.42822e-16	$X=582.096 $Y=209.844
C5399	XI2/net7#371	GNDA	5.91103e-15	$X=538.199 $Y=50.7195
C5400	XI2/net7#373	GNDA	6.20721e-15	$X=562.7065 $Y=109.8845
C5401	XI2/net7#374	GNDA	8.3514e-15	$X=601.9645 $Y=109.8845
C5402	XI2/net7#368	GNDA	3.1634e-15	$X=534.069 $Y=18.8765
C5403	XI2/net7#370	GNDA	4.70935e-15	$X=534.069 $Y=32.9475
C5404	XI2/net7#375	GNDA	4.89283e-15	$X=622.3435 $Y=158.4845
C5405	XI2/net8#141	GNDA	3.34012e-15	$X=630.394 $Y=205.6695
C5406	XI2/net2#126	GNDA	1.92477e-15	$X=682.354 $Y=170.109
C5407	XI2/net2#122	GNDA	5.18375e-15	$X=697.114 $Y=204.7795
C5408	XI2/net1#120	GNDA	4.22925e-15	$X=698.894 $Y=203.8895
C5409	XI0/net17#176	GNDA	2.27209e-15	$X=220.289 $Y=17.945
C5410	BGAP_REF#355	GNDA	1.70184e-15	$X=217.8245 $Y=67.3795
C5411	XI2/net3#15	GNDA	4.07573e-15	$X=688.7555 $Y=27.7755
C5412	XI2/net3#14	GNDA	7.56462e-16	$X=698.714 $Y=16.019
C5413	XI2/net3#16	GNDA	3.87418e-15	$X=688.7555 $Y=59.373
C5414	XI2/net3#17	GNDA	3.82453e-15	$X=688.7555 $Y=90.971
C5415	XI2/net3#18	GNDA	4.02386e-15	$X=688.756 $Y=122.569
C5416	XI2/net3#19	GNDA	1.55374e-15	$X=689.567 $Y=140.129
C5417	XI2/net3#20	GNDA	5.63943e-15	$X=663.1235 $Y=135.9895
C5418	XI2/net3#33	GNDA	3.38979e-15	$X=653.758 $Y=122.569
C5419	XI2/net3#34	GNDA	2.70996e-15	$X=653.758 $Y=90.971
C5420	XI2/net3#35	GNDA	2.75961e-15	$X=653.758 $Y=59.373
C5421	XI2/net3#36	GNDA	2.91625e-15	$X=653.758 $Y=27.7755
C5422	XI2/net3#37	GNDA	5.65335e-16	$X=663.124 $Y=16.0195
C5423	XI2/net3#21	GNDA	3.59785e-15	$X=594.8465 $Y=140.129
C5424	XI2/net3#22	GNDA	1.20098e-15	$X=566.648 $Y=123.9495
C5425	XI2/net4#726	GNDA	2.24193e-15	$X=689.272 $Y=29.725
C5426	XI2/net4#727	GNDA	5.1806e-16	$X=697.434 $Y=16.0195
C5427	XI2/net4#725	GNDA	3.01061e-15	$X=689.272 $Y=59.373
C5428	XI2/net4#724	GNDA	3.00317e-15	$X=689.272 $Y=90.971
C5429	XI2/net4#723	GNDA	2.38442e-15	$X=689.272 $Y=120.654
C5430	XI2/net4#722	GNDA	2.1236e-15	$X=697.434 $Y=135.6695
C5431	XI2/net4#633	GNDA	3.66506e-15	$X=664.4035 $Y=135.669
C5432	XI2/net4#717	GNDA	4.36664e-15	$X=655.259 $Y=90.971
C5433	XI2/net4#718	GNDA	4.37744e-15	$X=655.259 $Y=59.373
C5434	XI2/net4#719	GNDA	3.64319e-15	$X=655.259 $Y=29.725
C5435	XI2/net4#720	GNDA	5.07905e-16	$X=664.404 $Y=16.0195
C5436	XI2/net4#634	GNDA	3.16589e-15	$X=624.159 $Y=150.3235
C5437	XI2/net4#635	GNDA	2.03671e-15	$X=624.159 $Y=174.274
C5438	XI2/net4#539	GNDA	4.09099e-15	$X=655.259 $Y=120.654
*
*
.ENDS bias
*
