*
*
*
*                       LINUX           Wed Aug  7 16:32:40 2024
*
*
*
*  PROGRAM  advgen
*
*  Name           : advgen - Quantus - (64-bit)
*  Version        : 23.1.0-p075
*  Build Date     : Tue Sep 26 09:11:43 PDT 2023
*
*  HSPICE LIBRARY
*
* GLOBAL_TEMPERATURE 27
*  OPERATING_TEMPERATURE 27
*  QRC_TECH_DIR /home/saul/pkg/xfab/XKIT/xh018/cadence/v9_0/QRC_pvs/v9_0_1/XH018_1143/QRC-Typ 
*
*!LENGTH_UNITS METERS
*
*
*
*
*       SUBCIRCUIT DEFINITIONS
*
.SUBCKT ped D G S SB
.ENDS
*
.SUBCKT nedia D G S SB
.ENDS
*

*
.SUBCKT hvswitch5 CUR_IN DOWN GNDD GNDHV OUT UP VDD3 VDDHV VSUBHV
*
*
*  caps2d version: 10
*
*       SUBCIRCUIT CALLS
*
XMM1 OUT GATEP#195 VDDHV VSUBHV ped
+ w=5e-05 l=9.4e-07 ad=2.19714e-10 pd=8.94366e-05 adio=4.2498e-10
+ pdio=2.57015e-05 extlay=1
XMM1@1 OUT GATEP#178 VDDHV VSUBHV ped
+ w=5e-05 l=9.4e-07 ad=2.19714e-10 pd=8.94366e-05 adio=4.2498e-10
+ pdio=2.57015e-05 extlay=1
XMM1@2 OUT GATEP#161 VDDHV VSUBHV ped
+ w=5e-05 l=9.4e-07 ad=2.19714e-10 pd=8.94366e-05 adio=4.2498e-10
+ pdio=2.57015e-05 extlay=1
XMM1@3 OUT GATEP#144 VDDHV VSUBHV ped
+ w=5e-05 l=9.4e-07 ad=2.19714e-10 pd=8.94366e-05 adio=4.2498e-10
+ pdio=2.57015e-05 extlay=1
XMM1@4 OUT GATEP#127 VDDHV VSUBHV ped
+ w=5e-05 l=9.4e-07 ad=2.19714e-10 pd=8.94366e-05 adio=4.2498e-10
+ pdio=2.57015e-05 extlay=1
XMM1@5 OUT GATEP#110 VDDHV VSUBHV ped
+ w=5e-05 l=9.4e-07 ad=2.19714e-10 pd=8.94366e-05 adio=4.2498e-10
+ pdio=2.57015e-05 extlay=1
XMM1@6 OUT GATEP#93 VDDHV VSUBHV ped
+ w=5e-05 l=9.4e-07 ad=2.19714e-10 pd=8.94366e-05 adio=4.2498e-10
+ pdio=2.57015e-05 extlay=1
XMM1@7 OUT GATEP#76 VDDHV VSUBHV ped
+ w=5e-05 l=9.4e-07 ad=2.19714e-10 pd=8.94366e-05 adio=4.2498e-10
+ pdio=2.57015e-05 extlay=1
XMM1@8 OUT GATEP#59 VDDHV VSUBHV ped
+ w=5e-05 l=9.4e-07 ad=2.19714e-10 pd=8.94366e-05 adio=4.2498e-10
+ pdio=2.57015e-05 extlay=1
XMM1@9 OUT GATEP#42 VDDHV VSUBHV ped
+ w=5e-05 l=9.4e-07 ad=2.19714e-10 pd=8.94366e-05 adio=4.2498e-10
+ pdio=2.57015e-05 extlay=1
XMM1@10 OUT GATEP#25 VDDHV VSUBHV ped
+ w=5e-05 l=9.4e-07 ad=2.19714e-10 pd=8.94366e-05 adio=4.2498e-10
+ pdio=2.57015e-05 extlay=1
XMM1@11 OUT GATEP#8 VDDHV VSUBHV ped
+ w=5e-05 l=9.4e-07 ad=2.19714e-10 pd=8.94366e-05 adio=4.2498e-10
+ pdio=2.57015e-05 extlay=1
XMM4 D4 UPN#13 GNDHV VSUBHV nedia
+ w=2e-05 l=1.25e-06 adio=7.56916e-10 pdio=0.00010535 extlay=1
XMM2 GATEN DOWNN#13 GNDHV VSUBHV nedia
+ w=2e-05 l=1.25e-06 adio=7.56916e-10 pdio=0.00010535 extlay=1
XMM0 OUT GATEN#17 CUR_IN VSUBHV nedia
+ w=5e-05 l=1.25e-06 adio=6.71697e-10 pdio=3.30958e-05 extlay=1
XMM0@1 OUT GATEN#33 CUR_IN VSUBHV nedia
+ w=5e-05 l=1.25e-06 adio=6.71697e-10 pdio=3.30958e-05 extlay=1
XMM0@2 OUT GATEN#49 CUR_IN VSUBHV nedia
+ w=5e-05 l=1.25e-06 adio=6.71697e-10 pdio=3.30958e-05 extlay=1
XMM0@3 OUT GATEN#65 CUR_IN VSUBHV nedia
+ w=5e-05 l=1.25e-06 adio=6.71697e-10 pdio=3.30958e-05 extlay=1
XMM0@4 OUT GATEN#81 CUR_IN VSUBHV nedia
+ w=5e-05 l=1.25e-06 adio=6.71697e-10 pdio=3.30958e-05 extlay=1
XMM0@5 OUT GATEN#97 CUR_IN VSUBHV nedia
+ w=5e-05 l=1.25e-06 adio=6.71697e-10 pdio=3.30958e-05 extlay=1
XMM0@6 OUT GATEN#113 CUR_IN VSUBHV nedia
+ w=5e-05 l=1.25e-06 adio=6.71697e-10 pdio=3.30958e-05 extlay=1
XMM0@7 OUT GATEN#129 CUR_IN VSUBHV nedia
+ w=5e-05 l=1.25e-06 adio=6.71697e-10 pdio=3.30958e-05 extlay=1
XMM0@8 OUT GATEN#145 CUR_IN VSUBHV nedia
+ w=5e-05 l=1.25e-06 adio=6.71697e-10 pdio=3.30958e-05 extlay=1
XMM0@9 OUT GATEN#161 CUR_IN VSUBHV nedia
+ w=5e-05 l=1.25e-06 adio=6.71697e-10 pdio=3.30958e-05 extlay=1
XMM0@10 OUT GATEN#177 CUR_IN VSUBHV nedia
+ w=5e-05 l=1.25e-06 adio=6.71697e-10 pdio=3.30958e-05 extlay=1
XMM0@11 OUT GATEN#193 CUR_IN VSUBHV nedia
+ w=5e-05 l=1.25e-06 adio=6.71697e-10 pdio=3.30958e-05 extlay=1
*
*       TRANSISTOR CARDS
*
*
MMM8	UPN#19	net5#6	GNDD#4	VSUBHV	ne3	L=3.5e-07	W=2.2e-07
+ AD=1.984e-13	AS=1.984e-13	PD=1.88e-06	PS=1.88e-06
+ NRD=0.804735	NRS=0.804735
MMM5	net5#11	UP#6	GNDD#8	VSUBHV	ne3	L=3.5e-07
+ W=2.2e-07
+ AD=1.984e-13	AS=1.984e-13	PD=1.88e-06	PS=1.88e-06
+ NRD=0.804735	NRS=0.804735
MMM3	DOWNN#19	DOWN#6	GNDD#10	VSUBHV	ne3	L=3.5e-07
+ W=2.2e-07
+ AD=1.984e-13	AS=1.984e-13	PD=1.88e-06	PS=1.88e-06
+ NRD=0.804735	NRS=0.804735
MMM7	UPN#23	net5#2	VDD3#12	VDD3	pe3	L=3e-07
+ W=4.4e-07
+ AD=2.112e-13	AS=2.112e-13	PD=1.84e-06	PS=1.84e-06
+ NRD=0.39754	NRS=0.39754
MMM6	net5#15	UP#2	VDD3#15	VDD3	pe3	L=3e-07
+ W=4.4e-07
+ AD=2.112e-13	AS=2.112e-13	PD=1.84e-06	PS=1.84e-06
+ NRD=0.39754	NRS=0.39754
MMM11	DOWNN#23	DOWN#2	VDD3#2	VDD3	pe3	L=3e-07
+ W=4.4e-07
+ AD=2.112e-13	AS=2.112e-13	PD=1.84e-06	PS=1.84e-06
+ NRD=0.39754	NRS=0.39754
*
*
*       CANONICAL RESISTOR AND CAP/DIODE CARDS
*
RRR2	D4#1	GATEP	rpp1k1_3 	L=0.0002537	W=2e-06
+ $SUB=VSUBHV 
RRR0	GATEN#1	VDDHV#1	rpp1k1_3 	L=0.0002537	W=2e-06
+ $SUB=VSUBHV 
RRR1	GATEP#3	VDDHV#3	rpp1k1_3 	L=0.0002029	W=2e-06
+ $SUB=VSUBHV 
RRR3	GNDHV#1	GATEN#3	rpp1k1_3 	L=0.0002029	W=2e-06
+ $SUB=VSUBHV 
RRR7	OUT#1	VDDHV#5	rpp1k1_3 	L=0.00204358	W=2e-06
+ $SUB=VSUBHV 
*
*       PARASITIC RESISTOR AND CAP/DIODE CARDS
*
Rc1	OUT#14064	OUT#8166	1.176071	$MET4	$L=4.45e-06
+ $W=2.8e-07	$X=-19.88 $Y=1.285
Rc2	OUT#8166	OUT#8167	1.345183	$MET4	$L=5.24975e-06
+ $W=2.8e-07	$X=-19.88 $Y=-5.7245
Rc9	OUT#8167	OUT#8174	1.345183	$MET4	$L=5.24975e-06
+ $W=2.8e-07	$X=-21.3195 $Y=-8.35
Rc10	OUT#8174	OUT#14074	1.176071	$MET4	$L=4.45e-06
+ $W=2.8e-07	$X=-21.32 $Y=-0.875
Rc11	OUT#8167	OUT#3	1.345183	$MET4	$L=5.24975e-06
+ $W=2.8e-07	$X=-22.7595 $Y=-8.35
Rc12	OUT#3	OUT#14076	1.176071	$MET4	$L=4.45e-06
+ $W=2.8e-07	$X=-22.76 $Y=-0.875
Rc13	OUT#8167	OUT#8179	1.345183	$MET4	$L=5.24975e-06
+ $W=2.8e-07	$X=-24.1995 $Y=-8.35
Rc14	OUT#8179	OUT#14078	1.176071	$MET4	$L=4.45e-06
+ $W=2.8e-07	$X=-24.2 $Y=-0.875
Rc15	OUT#14079	OUT#8182	1.176071	$MET4	$L=4.45e-06
+ $W=2.8e-07	$X=-19.88 $Y=-10.415
Rc16	OUT#8182	OUT#8183	1.345183	$MET4	$L=5.24975e-06
+ $W=2.8e-07	$X=-19.88 $Y=-17.4245
Rc23	OUT#8183	OUT#8190	1.345183	$MET4	$L=5.24975e-06
+ $W=2.8e-07	$X=-21.3195 $Y=-20.05
Rc24	OUT#8190	OUT#14089	1.176071	$MET4	$L=4.45e-06
+ $W=2.8e-07	$X=-21.32 $Y=-12.575
Rc25	OUT#8183	OUT#3	1.345183	$MET4	$L=5.24975e-06
+ $W=2.8e-07	$X=-22.7595 $Y=-20.05
Rc26	OUT#3	OUT#14091	1.176071	$MET4	$L=4.45e-06
+ $W=2.8e-07	$X=-22.76 $Y=-12.575
Rc27	OUT#8183	OUT#8195	1.345183	$MET4	$L=5.24975e-06
+ $W=2.8e-07	$X=-24.1995 $Y=-20.05
Rc28	OUT#8195	OUT#14093	1.176071	$MET4	$L=4.45e-06
+ $W=2.8e-07	$X=-24.2 $Y=-12.575
Rc29	VDDHV#13569	VDDHV#177	1.176071	$MET4	$L=4.45e-06
+ $W=2.8e-07	$X=-24.92 $Y=-7.485
Rc33	VDDHV#177	VDDHV#7805	1.345245	$MET4	$L=5.25025e-06
+ $W=2.8e-07	$X=-23.4795 $Y=2.15
Rc34	VDDHV#7805	VDDHV#13575	1.176071	$MET4	$L=4.45e-06
+ $W=2.8e-07	$X=-23.48 $Y=-5.325
Rc38	VDDHV#177	VDDHV#13579	1.176071	$MET4	$L=4.45e-06
+ $W=2.8e-07	$X=-22.04 $Y=-5.325
Rc40	VDDHV#177	VDDHV#7800	1.345245	$MET4	$L=5.25025e-06
+ $W=2.8e-07	$X=-20.5995 $Y=2.15
Rc41	VDDHV#7800	VDDHV#13582	1.176071	$MET4	$L=4.45e-06
+ $W=2.8e-07	$X=-20.6 $Y=-5.325
Rc43	VDDHV#13584	VDDHV#177	1.176071	$MET4	$L=4.45e-06
+ $W=2.8e-07	$X=-24.92 $Y=-19.185
Rc47	VDDHV#177	VDDHV#7822	1.345245	$MET4	$L=5.25025e-06
+ $W=2.8e-07	$X=-23.4795 $Y=-9.55
Rc48	VDDHV#7822	VDDHV#13590	1.176071	$MET4	$L=4.45e-06
+ $W=2.8e-07	$X=-23.48 $Y=-17.025
Rc52	VDDHV#177	VDDHV#13594	1.176071	$MET4	$L=4.45e-06
+ $W=2.8e-07	$X=-22.04 $Y=-17.025
Rc54	VDDHV#177	VDDHV#7817	1.345245	$MET4	$L=5.25025e-06
+ $W=2.8e-07	$X=-20.5995 $Y=-9.55
Rc55	VDDHV#7817	VDDHV#13597	1.176071	$MET4	$L=4.45e-06
+ $W=2.8e-07	$X=-20.6 $Y=-17.025
Rc57	OUT#14094	OUT#8198	1.176071	$MET4	$L=4.45e-06
+ $W=2.8e-07	$X=-13.84 $Y=1.285
Rc58	OUT#8198	OUT#8199	1.345183	$MET4	$L=5.24975e-06
+ $W=2.8e-07	$X=-13.84 $Y=-5.7245
Rc65	OUT#8199	OUT#8206	1.345183	$MET4	$L=5.24975e-06
+ $W=2.8e-07	$X=-15.2795 $Y=-8.35
Rc66	OUT#8206	OUT#14104	1.176071	$MET4	$L=4.45e-06
+ $W=2.8e-07	$X=-15.28 $Y=-0.875
Rc67	OUT#8199	OUT#3	1.345183	$MET4	$L=5.24975e-06
+ $W=2.8e-07	$X=-16.7195 $Y=-8.35
Rc68	OUT#3	OUT#14106	1.176071	$MET4	$L=4.45e-06
+ $W=2.8e-07	$X=-16.72 $Y=-0.875
Rc69	OUT#8199	OUT#8211	1.345183	$MET4	$L=5.24975e-06
+ $W=2.8e-07	$X=-18.1595 $Y=-8.35
Rc70	OUT#8211	OUT#14108	1.176071	$MET4	$L=4.45e-06
+ $W=2.8e-07	$X=-18.16 $Y=-0.875
Rc71	OUT#14109	OUT#8214	1.176071	$MET4	$L=4.45e-06
+ $W=2.8e-07	$X=-13.84 $Y=-10.415
Rc72	OUT#8214	OUT#8215	1.345183	$MET4	$L=5.24975e-06
+ $W=2.8e-07	$X=-13.84 $Y=-17.4245
Rc79	OUT#8215	OUT#8222	1.345183	$MET4	$L=5.24975e-06
+ $W=2.8e-07	$X=-15.2795 $Y=-20.05
Rc80	OUT#8222	OUT#14119	1.176071	$MET4	$L=4.45e-06
+ $W=2.8e-07	$X=-15.28 $Y=-12.575
Rc81	OUT#8215	OUT#3	1.345183	$MET4	$L=5.24975e-06
+ $W=2.8e-07	$X=-16.7195 $Y=-20.05
Rc82	OUT#3	OUT#14121	1.176071	$MET4	$L=4.45e-06
+ $W=2.8e-07	$X=-16.72 $Y=-12.575
Rc83	OUT#8215	OUT#8227	1.345183	$MET4	$L=5.24975e-06
+ $W=2.8e-07	$X=-18.1595 $Y=-20.05
Rc84	OUT#8227	OUT#14123	1.176071	$MET4	$L=4.45e-06
+ $W=2.8e-07	$X=-18.16 $Y=-12.575
Rc85	VDDHV#13599	VDDHV#177	1.176071	$MET4	$L=4.45e-06
+ $W=2.8e-07	$X=-18.88 $Y=-7.485
Rc89	VDDHV#177	VDDHV#7839	1.345245	$MET4	$L=5.25025e-06
+ $W=2.8e-07	$X=-17.4395 $Y=2.15
Rc90	VDDHV#7839	VDDHV#13605	1.176071	$MET4	$L=4.45e-06
+ $W=2.8e-07	$X=-17.44 $Y=-5.325
Rc94	VDDHV#177	VDDHV#13609	1.176071	$MET4	$L=4.45e-06
+ $W=2.8e-07	$X=-16 $Y=-5.325
Rc96	VDDHV#177	VDDHV#7834	1.345245	$MET4	$L=5.25025e-06
+ $W=2.8e-07	$X=-14.5595 $Y=2.15
Rc97	VDDHV#7834	VDDHV#13612	1.176071	$MET4	$L=4.45e-06
+ $W=2.8e-07	$X=-14.56 $Y=-5.325
Rc99	VDDHV#13614	VDDHV#177	1.176071	$MET4	$L=4.45e-06
+ $W=2.8e-07	$X=-18.88 $Y=-19.185
Rc103	VDDHV#177	VDDHV#7856	1.345245	$MET4	$L=5.25025e-06
+ $W=2.8e-07	$X=-17.4395 $Y=-9.55
Rc104	VDDHV#7856	VDDHV#13620	1.176071	$MET4	$L=4.45e-06
+ $W=2.8e-07	$X=-17.44 $Y=-17.025
Rc108	VDDHV#177	VDDHV#13624	1.176071	$MET4	$L=4.45e-06
+ $W=2.8e-07	$X=-16 $Y=-17.025
Rc110	VDDHV#177	VDDHV#7851	1.345245	$MET4	$L=5.25025e-06
+ $W=2.8e-07	$X=-14.5595 $Y=-9.55
Rc111	VDDHV#7851	VDDHV#13627	1.176071	$MET4	$L=4.45e-06
+ $W=2.8e-07	$X=-14.56 $Y=-17.025
Rc113	OUT#14124	OUT#8230	1.176071	$MET4	$L=4.45e-06
+ $W=2.8e-07	$X=-7.8 $Y=1.285
Rc114	OUT#8230	OUT#8231	1.345183	$MET4	$L=5.24975e-06
+ $W=2.8e-07	$X=-7.8 $Y=-5.7245
Rc121	OUT#8231	OUT#8238	1.345183	$MET4	$L=5.24975e-06
+ $W=2.8e-07	$X=-9.2395 $Y=-8.35
Rc122	OUT#8238	OUT#14134	1.176071	$MET4	$L=4.45e-06
+ $W=2.8e-07	$X=-9.24 $Y=-0.875
Rc123	OUT#8231	OUT#3	1.345183	$MET4	$L=5.24975e-06
+ $W=2.8e-07	$X=-10.6795 $Y=-8.35
Rc124	OUT#3	OUT#14136	1.176071	$MET4	$L=4.45e-06
+ $W=2.8e-07	$X=-10.68 $Y=-0.875
Rc125	OUT#8231	OUT#8243	1.345183	$MET4	$L=5.24975e-06
+ $W=2.8e-07	$X=-12.1195 $Y=-8.35
Rc126	OUT#8243	OUT#14138	1.176071	$MET4	$L=4.45e-06
+ $W=2.8e-07	$X=-12.12 $Y=-0.875
Rc127	OUT#14139	OUT#8246	1.176071	$MET4	$L=4.45e-06
+ $W=2.8e-07	$X=-7.8 $Y=-10.415
Rc128	OUT#8246	OUT#8247	1.345183	$MET4	$L=5.24975e-06
+ $W=2.8e-07	$X=-7.8 $Y=-17.4245
Rc135	OUT#8247	OUT#8254	1.345183	$MET4	$L=5.24975e-06
+ $W=2.8e-07	$X=-9.2395 $Y=-20.05
Rc136	OUT#8254	OUT#14149	1.176071	$MET4	$L=4.45e-06
+ $W=2.8e-07	$X=-9.24 $Y=-12.575
Rc137	OUT#8247	OUT#3	1.345183	$MET4	$L=5.24975e-06
+ $W=2.8e-07	$X=-10.6795 $Y=-20.05
Rc138	OUT#3	OUT#14151	1.176071	$MET4	$L=4.45e-06
+ $W=2.8e-07	$X=-10.68 $Y=-12.575
Rc139	OUT#8247	OUT#8259	1.345183	$MET4	$L=5.24975e-06
+ $W=2.8e-07	$X=-12.1195 $Y=-20.05
Rc140	OUT#8259	OUT#14153	1.176071	$MET4	$L=4.45e-06
+ $W=2.8e-07	$X=-12.12 $Y=-12.575
Rc141	VDDHV#13629	VDDHV#177	1.176071	$MET4	$L=4.45e-06
+ $W=2.8e-07	$X=-12.84 $Y=-7.485
Rc145	VDDHV#177	VDDHV#7873	1.345245	$MET4	$L=5.25025e-06
+ $W=2.8e-07	$X=-11.3995 $Y=2.15
Rc146	VDDHV#7873	VDDHV#13635	1.176071	$MET4	$L=4.45e-06
+ $W=2.8e-07	$X=-11.4 $Y=-5.325
Rc150	VDDHV#177	VDDHV#13639	1.176071	$MET4	$L=4.45e-06
+ $W=2.8e-07	$X=-9.96 $Y=-5.325
Rc152	VDDHV#177	VDDHV#7868	1.345245	$MET4	$L=5.25025e-06
+ $W=2.8e-07	$X=-8.5195 $Y=2.15
Rc153	VDDHV#7868	VDDHV#13642	1.176071	$MET4	$L=4.45e-06
+ $W=2.8e-07	$X=-8.52 $Y=-5.325
Rc155	VDDHV#13644	VDDHV#177	1.176071	$MET4	$L=4.45e-06
+ $W=2.8e-07	$X=-12.84 $Y=-19.185
Rc159	VDDHV#177	VDDHV#7890	1.345245	$MET4	$L=5.25025e-06
+ $W=2.8e-07	$X=-11.3995 $Y=-9.55
Rc160	VDDHV#7890	VDDHV#13650	1.176071	$MET4	$L=4.45e-06
+ $W=2.8e-07	$X=-11.4 $Y=-17.025
Rc164	VDDHV#177	VDDHV#13654	1.176071	$MET4	$L=4.45e-06
+ $W=2.8e-07	$X=-9.96 $Y=-17.025
Rc166	VDDHV#177	VDDHV#7885	1.345245	$MET4	$L=5.25025e-06
+ $W=2.8e-07	$X=-8.5195 $Y=-9.55
Rc167	VDDHV#7885	VDDHV#13657	1.176071	$MET4	$L=4.45e-06
+ $W=2.8e-07	$X=-8.52 $Y=-17.025
Rc169	OUT#14154	OUT#8262	1.176071	$MET4	$L=4.45e-06
+ $W=2.8e-07	$X=-1.76 $Y=1.285
Rc170	OUT#8262	OUT#8263	1.345183	$MET4	$L=5.24975e-06
+ $W=2.8e-07	$X=-1.76 $Y=-5.7245
Rc177	OUT#8263	OUT#8270	1.345183	$MET4	$L=5.24975e-06
+ $W=2.8e-07	$X=-3.1995 $Y=-8.35
Rc178	OUT#8270	OUT#14164	1.176071	$MET4	$L=4.45e-06
+ $W=2.8e-07	$X=-3.2 $Y=-0.875
Rc179	OUT#8263	OUT#3	1.345183	$MET4	$L=5.24975e-06
+ $W=2.8e-07	$X=-4.6395 $Y=-8.35
Rc180	OUT#3	OUT#14166	1.176071	$MET4	$L=4.45e-06
+ $W=2.8e-07	$X=-4.64 $Y=-0.875
Rc181	OUT#8263	OUT#8275	1.345183	$MET4	$L=5.24975e-06
+ $W=2.8e-07	$X=-6.0795 $Y=-8.35
Rc182	OUT#8275	OUT#14168	1.176071	$MET4	$L=4.45e-06
+ $W=2.8e-07	$X=-6.08 $Y=-0.875
Rc183	OUT#14169	OUT#8278	1.176071	$MET4	$L=4.45e-06
+ $W=2.8e-07	$X=-1.76 $Y=-10.415
Rc184	OUT#8278	OUT#8279	1.345183	$MET4	$L=5.24975e-06
+ $W=2.8e-07	$X=-1.76 $Y=-17.4245
Rc191	OUT#8279	OUT#8286	1.345183	$MET4	$L=5.24975e-06
+ $W=2.8e-07	$X=-3.1995 $Y=-20.05
Rc192	OUT#8286	OUT#14179	1.176071	$MET4	$L=4.45e-06
+ $W=2.8e-07	$X=-3.2 $Y=-12.575
Rc193	OUT#8279	OUT#3	1.345183	$MET4	$L=5.24975e-06
+ $W=2.8e-07	$X=-4.6395 $Y=-20.05
Rc194	OUT#3	OUT#14181	1.176071	$MET4	$L=4.45e-06
+ $W=2.8e-07	$X=-4.64 $Y=-12.575
Rc195	OUT#8279	OUT#8291	1.345183	$MET4	$L=5.24975e-06
+ $W=2.8e-07	$X=-6.0795 $Y=-20.05
Rc196	OUT#8291	OUT#14183	1.176071	$MET4	$L=4.45e-06
+ $W=2.8e-07	$X=-6.08 $Y=-12.575
Rc197	VDDHV#13659	VDDHV#177	1.176071	$MET4	$L=4.45e-06
+ $W=2.8e-07	$X=-6.8 $Y=-7.485
Rc201	VDDHV#177	VDDHV#7907	1.345245	$MET4	$L=5.25025e-06
+ $W=2.8e-07	$X=-5.3595 $Y=2.15
Rc202	VDDHV#7907	VDDHV#13665	1.176071	$MET4	$L=4.45e-06
+ $W=2.8e-07	$X=-5.36 $Y=-5.325
Rc206	VDDHV#177	VDDHV#13669	1.176071	$MET4	$L=4.45e-06
+ $W=2.8e-07	$X=-3.92 $Y=-5.325
Rc208	VDDHV#177	VDDHV#7902	1.345245	$MET4	$L=5.25025e-06
+ $W=2.8e-07	$X=-2.4795 $Y=2.15
Rc209	VDDHV#7902	VDDHV#13672	1.176071	$MET4	$L=4.45e-06
+ $W=2.8e-07	$X=-2.48 $Y=-5.325
Rc211	VDDHV#13674	VDDHV#177	1.176071	$MET4	$L=4.45e-06
+ $W=2.8e-07	$X=-6.8 $Y=-19.185
Rc215	VDDHV#177	VDDHV#7924	1.345245	$MET4	$L=5.25025e-06
+ $W=2.8e-07	$X=-5.3595 $Y=-9.55
Rc216	VDDHV#7924	VDDHV#13680	1.176071	$MET4	$L=4.45e-06
+ $W=2.8e-07	$X=-5.36 $Y=-17.025
Rc220	VDDHV#177	VDDHV#13684	1.176071	$MET4	$L=4.45e-06
+ $W=2.8e-07	$X=-3.92 $Y=-17.025
Rc222	VDDHV#177	VDDHV#7919	1.345245	$MET4	$L=5.25025e-06
+ $W=2.8e-07	$X=-2.4795 $Y=-9.55
Rc223	VDDHV#7919	VDDHV#13687	1.176071	$MET4	$L=4.45e-06
+ $W=2.8e-07	$X=-2.48 $Y=-17.025
Rc225	OUT#14184	OUT#8294	1.176071	$MET4	$L=4.45e-06
+ $W=2.8e-07	$X=4.28 $Y=1.285
Rc226	OUT#8294	OUT#8295	1.345183	$MET4	$L=5.24975e-06
+ $W=2.8e-07	$X=4.28 $Y=-5.7245
Rc233	OUT#8295	OUT#8302	1.345183	$MET4	$L=5.24975e-06
+ $W=2.8e-07	$X=2.84 $Y=-8.35
Rc234	OUT#8302	OUT#14194	1.176071	$MET4	$L=4.45e-06
+ $W=2.8e-07	$X=2.84 $Y=-0.875
Rc235	OUT#8295	OUT#3	1.345183	$MET4	$L=5.24975e-06
+ $W=2.8e-07	$X=1.4 $Y=-8.35
Rc236	OUT#3	OUT#14196	1.176071	$MET4	$L=4.45e-06
+ $W=2.8e-07	$X=1.4 $Y=-0.875
Rc237	OUT#8295	OUT#8307	1.345183	$MET4	$L=5.24975e-06
+ $W=2.8e-07	$X=-0.0395 $Y=-8.35
Rc238	OUT#8307	OUT#14198	1.176071	$MET4	$L=4.45e-06
+ $W=2.8e-07	$X=-0.04 $Y=-0.875
Rc239	OUT#14199	OUT#8310	1.176071	$MET4	$L=4.45e-06
+ $W=2.8e-07	$X=4.28 $Y=-10.415
Rc240	OUT#8310	OUT#8311	1.345183	$MET4	$L=5.24975e-06
+ $W=2.8e-07	$X=4.28 $Y=-17.4245
Rc247	OUT#8311	OUT#8318	1.345183	$MET4	$L=5.24975e-06
+ $W=2.8e-07	$X=2.84 $Y=-20.05
Rc248	OUT#8318	OUT#14209	1.176071	$MET4	$L=4.45e-06
+ $W=2.8e-07	$X=2.84 $Y=-12.575
Rc249	OUT#8311	OUT#3	1.345183	$MET4	$L=5.24975e-06
+ $W=2.8e-07	$X=1.4 $Y=-20.05
Rc250	OUT#3	OUT#14211	1.176071	$MET4	$L=4.45e-06
+ $W=2.8e-07	$X=1.4 $Y=-12.575
Rc251	OUT#8311	OUT#8323	1.345183	$MET4	$L=5.24975e-06
+ $W=2.8e-07	$X=-0.0395 $Y=-20.05
Rc252	OUT#8323	OUT#14213	1.176071	$MET4	$L=4.45e-06
+ $W=2.8e-07	$X=-0.04 $Y=-12.575
Rc253	VDDHV#13689	VDDHV#177	1.176071	$MET4	$L=4.45e-06
+ $W=2.8e-07	$X=-0.76 $Y=-7.485
Rc257	VDDHV#177	VDDHV#7941	1.345245	$MET4	$L=5.25025e-06
+ $W=2.8e-07	$X=0.68 $Y=2.15
Rc258	VDDHV#7941	VDDHV#13695	1.176071	$MET4	$L=4.45e-06
+ $W=2.8e-07	$X=0.68 $Y=-5.325
Rc262	VDDHV#177	VDDHV#13699	1.176071	$MET4	$L=4.45e-06
+ $W=2.8e-07	$X=2.12 $Y=-5.325
Rc264	VDDHV#177	VDDHV#7936	1.345245	$MET4	$L=5.25025e-06
+ $W=2.8e-07	$X=3.56 $Y=2.15
Rc265	VDDHV#7936	VDDHV#13702	1.176071	$MET4	$L=4.45e-06
+ $W=2.8e-07	$X=3.56 $Y=-5.325
Rc267	VDDHV#13704	VDDHV#177	1.176071	$MET4	$L=4.45e-06
+ $W=2.8e-07	$X=-0.76 $Y=-19.185
Rc271	VDDHV#177	VDDHV#7958	1.345245	$MET4	$L=5.25025e-06
+ $W=2.8e-07	$X=0.68 $Y=-9.55
Rc272	VDDHV#7958	VDDHV#13710	1.176071	$MET4	$L=4.45e-06
+ $W=2.8e-07	$X=0.68 $Y=-17.025
Rc276	VDDHV#177	VDDHV#13714	1.176071	$MET4	$L=4.45e-06
+ $W=2.8e-07	$X=2.12 $Y=-17.025
Rc278	VDDHV#177	VDDHV#7953	1.345245	$MET4	$L=5.25025e-06
+ $W=2.8e-07	$X=3.56 $Y=-9.55
Rc279	VDDHV#7953	VDDHV#13717	1.176071	$MET4	$L=4.45e-06
+ $W=2.8e-07	$X=3.56 $Y=-17.025
Rc281	OUT#14214	OUT#8326	1.176071	$MET4	$L=4.45e-06
+ $W=2.8e-07	$X=10.32 $Y=1.285
Rc282	OUT#8326	OUT#8327	1.345183	$MET4	$L=5.24975e-06
+ $W=2.8e-07	$X=10.32 $Y=-5.7245
Rc289	OUT#8327	OUT#8334	1.345183	$MET4	$L=5.24975e-06
+ $W=2.8e-07	$X=8.88 $Y=-8.35
Rc290	OUT#8334	OUT#14224	1.176071	$MET4	$L=4.45e-06
+ $W=2.8e-07	$X=8.88 $Y=-0.875
Rc291	OUT#8327	OUT#3	1.345183	$MET4	$L=5.24975e-06
+ $W=2.8e-07	$X=7.44 $Y=-8.35
Rc292	OUT#3	OUT#14226	1.176071	$MET4	$L=4.45e-06
+ $W=2.8e-07	$X=7.44 $Y=-0.875
Rc293	OUT#8327	OUT#8339	1.345183	$MET4	$L=5.24975e-06
+ $W=2.8e-07	$X=6 $Y=-8.35
Rc294	OUT#8339	OUT#14228	1.176071	$MET4	$L=4.45e-06
+ $W=2.8e-07	$X=6 $Y=-0.875
Rc295	OUT#14229	OUT#8342	1.176071	$MET4	$L=4.45e-06
+ $W=2.8e-07	$X=10.32 $Y=-10.415
Rc296	OUT#8342	OUT#8343	1.345183	$MET4	$L=5.24975e-06
+ $W=2.8e-07	$X=10.32 $Y=-17.4245
Rc303	OUT#8343	OUT#8350	1.345183	$MET4	$L=5.24975e-06
+ $W=2.8e-07	$X=8.88 $Y=-20.05
Rc304	OUT#8350	OUT#14239	1.176071	$MET4	$L=4.45e-06
+ $W=2.8e-07	$X=8.88 $Y=-12.575
Rc305	OUT#8343	OUT#3	1.345183	$MET4	$L=5.24975e-06
+ $W=2.8e-07	$X=7.44 $Y=-20.05
Rc306	OUT#3	OUT#14241	1.176071	$MET4	$L=4.45e-06
+ $W=2.8e-07	$X=7.44 $Y=-12.575
Rc307	OUT#8343	OUT#8355	1.345183	$MET4	$L=5.24975e-06
+ $W=2.8e-07	$X=6 $Y=-20.05
Rc308	OUT#8355	OUT#14243	1.176071	$MET4	$L=4.45e-06
+ $W=2.8e-07	$X=6 $Y=-12.575
Rc309	VDDHV#13719	VDDHV#177	1.176071	$MET4	$L=4.45e-06
+ $W=2.8e-07	$X=5.28 $Y=-7.485
Rc313	VDDHV#177	VDDHV#7975	1.345245	$MET4	$L=5.25025e-06
+ $W=2.8e-07	$X=6.72 $Y=2.15
Rc314	VDDHV#7975	VDDHV#13725	1.176071	$MET4	$L=4.45e-06
+ $W=2.8e-07	$X=6.72 $Y=-5.325
Rc318	VDDHV#177	VDDHV#13729	1.176071	$MET4	$L=4.45e-06
+ $W=2.8e-07	$X=8.16 $Y=-5.325
Rc320	VDDHV#177	VDDHV#7970	1.345245	$MET4	$L=5.25025e-06
+ $W=2.8e-07	$X=9.6 $Y=2.15
Rc321	VDDHV#7970	VDDHV#13732	1.176071	$MET4	$L=4.45e-06
+ $W=2.8e-07	$X=9.6 $Y=-5.325
Rc323	VDDHV#13734	VDDHV#177	1.176071	$MET4	$L=4.45e-06
+ $W=2.8e-07	$X=5.28 $Y=-19.185
Rc327	VDDHV#177	VDDHV#7992	1.345245	$MET4	$L=5.25025e-06
+ $W=2.8e-07	$X=6.72 $Y=-9.55
Rc328	VDDHV#7992	VDDHV#13740	1.176071	$MET4	$L=4.45e-06
+ $W=2.8e-07	$X=6.72 $Y=-17.025
Rc332	VDDHV#177	VDDHV#13744	1.176071	$MET4	$L=4.45e-06
+ $W=2.8e-07	$X=8.16 $Y=-17.025
Rc334	VDDHV#177	VDDHV#7987	1.345245	$MET4	$L=5.25025e-06
+ $W=2.8e-07	$X=9.6 $Y=-9.55
Rc335	VDDHV#7987	VDDHV#13747	1.176071	$MET4	$L=4.45e-06
+ $W=2.8e-07	$X=9.6 $Y=-17.025
Rc337	OUT#14244	OUT#8358	1.176071	$MET4	$L=4.45e-06
+ $W=2.8e-07	$X=16.36 $Y=1.285
Rc338	OUT#8358	OUT#8359	1.345183	$MET4	$L=5.24975e-06
+ $W=2.8e-07	$X=16.36 $Y=-5.7245
Rc345	OUT#8359	OUT#8366	1.345183	$MET4	$L=5.24975e-06
+ $W=2.8e-07	$X=14.92 $Y=-8.35
Rc346	OUT#8366	OUT#14254	1.176071	$MET4	$L=4.45e-06
+ $W=2.8e-07	$X=14.92 $Y=-0.875
Rc347	OUT#8359	OUT#3	1.345183	$MET4	$L=5.24975e-06
+ $W=2.8e-07	$X=13.48 $Y=-8.35
Rc348	OUT#3	OUT#14256	1.176071	$MET4	$L=4.45e-06
+ $W=2.8e-07	$X=13.48 $Y=-0.875
Rc349	OUT#8359	OUT#8371	1.345183	$MET4	$L=5.24975e-06
+ $W=2.8e-07	$X=12.04 $Y=-8.35
Rc350	OUT#8371	OUT#14258	1.176071	$MET4	$L=4.45e-06
+ $W=2.8e-07	$X=12.04 $Y=-0.875
Rc351	OUT#14259	OUT#8374	1.176071	$MET4	$L=4.45e-06
+ $W=2.8e-07	$X=16.36 $Y=-10.415
Rc352	OUT#8374	OUT#8375	1.345183	$MET4	$L=5.24975e-06
+ $W=2.8e-07	$X=16.36 $Y=-17.4245
Rc359	OUT#8375	OUT#8382	1.345183	$MET4	$L=5.24975e-06
+ $W=2.8e-07	$X=14.92 $Y=-20.05
Rc360	OUT#8382	OUT#14269	1.176071	$MET4	$L=4.45e-06
+ $W=2.8e-07	$X=14.92 $Y=-12.575
Rc361	OUT#8375	OUT#3	1.345183	$MET4	$L=5.24975e-06
+ $W=2.8e-07	$X=13.48 $Y=-20.05
Rc362	OUT#3	OUT#14271	1.176071	$MET4	$L=4.45e-06
+ $W=2.8e-07	$X=13.48 $Y=-12.575
Rc363	OUT#8375	OUT#8387	1.345183	$MET4	$L=5.24975e-06
+ $W=2.8e-07	$X=12.04 $Y=-20.05
Rc364	OUT#8387	OUT#14273	1.176071	$MET4	$L=4.45e-06
+ $W=2.8e-07	$X=12.04 $Y=-12.575
Rc365	VDDHV#13749	VDDHV#177	1.176071	$MET4	$L=4.45e-06
+ $W=2.8e-07	$X=11.32 $Y=-7.485
Rc369	VDDHV#177	VDDHV#8009	1.345245	$MET4	$L=5.25025e-06
+ $W=2.8e-07	$X=12.76 $Y=2.15
Rc370	VDDHV#8009	VDDHV#13755	1.176071	$MET4	$L=4.45e-06
+ $W=2.8e-07	$X=12.76 $Y=-5.325
Rc374	VDDHV#177	VDDHV#13759	1.176071	$MET4	$L=4.45e-06
+ $W=2.8e-07	$X=14.2 $Y=-5.325
Rc376	VDDHV#177	VDDHV#8004	1.345245	$MET4	$L=5.25025e-06
+ $W=2.8e-07	$X=15.64 $Y=2.15
Rc377	VDDHV#8004	VDDHV#13762	1.176071	$MET4	$L=4.45e-06
+ $W=2.8e-07	$X=15.64 $Y=-5.325
Rc379	VDDHV#13764	VDDHV#177	1.176071	$MET4	$L=4.45e-06
+ $W=2.8e-07	$X=11.32 $Y=-19.185
Rc383	VDDHV#177	VDDHV#8026	1.345245	$MET4	$L=5.25025e-06
+ $W=2.8e-07	$X=12.76 $Y=-9.55
Rc384	VDDHV#8026	VDDHV#13770	1.176071	$MET4	$L=4.45e-06
+ $W=2.8e-07	$X=12.76 $Y=-17.025
Rc388	VDDHV#177	VDDHV#13774	1.176071	$MET4	$L=4.45e-06
+ $W=2.8e-07	$X=14.2 $Y=-17.025
Rc390	VDDHV#177	VDDHV#8021	1.345245	$MET4	$L=5.25025e-06
+ $W=2.8e-07	$X=15.64 $Y=-9.55
Rc391	VDDHV#8021	VDDHV#13777	1.176071	$MET4	$L=4.45e-06
+ $W=2.8e-07	$X=15.64 $Y=-17.025
Rc393	OUT#14274	OUT#8390	1.176071	$MET4	$L=4.45e-06
+ $W=2.8e-07	$X=22.4 $Y=1.285
Rc394	OUT#8390	OUT#8391	1.345183	$MET4	$L=5.24975e-06
+ $W=2.8e-07	$X=22.4 $Y=-5.7245
Rc401	OUT#8391	OUT#8398	1.345183	$MET4	$L=5.24975e-06
+ $W=2.8e-07	$X=20.96 $Y=-8.35
Rc402	OUT#8398	OUT#14284	1.176071	$MET4	$L=4.45e-06
+ $W=2.8e-07	$X=20.96 $Y=-0.875
Rc403	OUT#8391	OUT#3	1.345183	$MET4	$L=5.24975e-06
+ $W=2.8e-07	$X=19.52 $Y=-8.35
Rc404	OUT#3	OUT#14286	1.176071	$MET4	$L=4.45e-06
+ $W=2.8e-07	$X=19.52 $Y=-0.875
Rc405	OUT#8391	OUT#8403	1.345183	$MET4	$L=5.24975e-06
+ $W=2.8e-07	$X=18.08 $Y=-8.35
Rc406	OUT#8403	OUT#14288	1.176071	$MET4	$L=4.45e-06
+ $W=2.8e-07	$X=18.08 $Y=-0.875
Rc407	OUT#14289	OUT#8406	1.176071	$MET4	$L=4.45e-06
+ $W=2.8e-07	$X=22.4 $Y=-10.415
Rc408	OUT#8406	OUT#8407	1.345183	$MET4	$L=5.24975e-06
+ $W=2.8e-07	$X=22.4 $Y=-17.4245
Rc415	OUT#8407	OUT#8414	1.345183	$MET4	$L=5.24975e-06
+ $W=2.8e-07	$X=20.96 $Y=-20.05
Rc416	OUT#8414	OUT#14299	1.176071	$MET4	$L=4.45e-06
+ $W=2.8e-07	$X=20.96 $Y=-12.575
Rc417	OUT#8407	OUT#3	1.345183	$MET4	$L=5.24975e-06
+ $W=2.8e-07	$X=19.52 $Y=-20.05
Rc418	OUT#3	OUT#14301	1.176071	$MET4	$L=4.45e-06
+ $W=2.8e-07	$X=19.52 $Y=-12.575
Rc419	OUT#8407	OUT#8419	1.345183	$MET4	$L=5.24975e-06
+ $W=2.8e-07	$X=18.08 $Y=-20.05
Rc420	OUT#8419	OUT#14303	1.176071	$MET4	$L=4.45e-06
+ $W=2.8e-07	$X=18.08 $Y=-12.575
Rc421	VDDHV#13779	VDDHV#177	1.176071	$MET4	$L=4.45e-06
+ $W=2.8e-07	$X=17.36 $Y=-7.485
Rc425	VDDHV#177	VDDHV#8043	1.345245	$MET4	$L=5.25025e-06
+ $W=2.8e-07	$X=18.8 $Y=2.15
Rc426	VDDHV#8043	VDDHV#13785	1.176071	$MET4	$L=4.45e-06
+ $W=2.8e-07	$X=18.8 $Y=-5.325
Rc430	VDDHV#177	VDDHV#13789	1.176071	$MET4	$L=4.45e-06
+ $W=2.8e-07	$X=20.24 $Y=-5.325
Rc432	VDDHV#177	VDDHV#8038	1.345245	$MET4	$L=5.25025e-06
+ $W=2.8e-07	$X=21.68 $Y=2.15
Rc433	VDDHV#8038	VDDHV#13792	1.176071	$MET4	$L=4.45e-06
+ $W=2.8e-07	$X=21.68 $Y=-5.325
Rc435	VDDHV#13794	VDDHV#177	1.176071	$MET4	$L=4.45e-06
+ $W=2.8e-07	$X=17.36 $Y=-19.185
Rc439	VDDHV#177	VDDHV#8060	1.345245	$MET4	$L=5.25025e-06
+ $W=2.8e-07	$X=18.8 $Y=-9.55
Rc440	VDDHV#8060	VDDHV#13800	1.176071	$MET4	$L=4.45e-06
+ $W=2.8e-07	$X=18.8 $Y=-17.025
Rc444	VDDHV#177	VDDHV#13804	1.176071	$MET4	$L=4.45e-06
+ $W=2.8e-07	$X=20.24 $Y=-17.025
Rc446	VDDHV#177	VDDHV#8055	1.345245	$MET4	$L=5.25025e-06
+ $W=2.8e-07	$X=21.68 $Y=-9.55
Rc447	VDDHV#8055	VDDHV#13807	1.176071	$MET4	$L=4.45e-06
+ $W=2.8e-07	$X=21.68 $Y=-17.025
Rc449	OUT#14304	OUT#8422	1.176071	$MET4	$L=4.45e-06
+ $W=2.8e-07	$X=28.44 $Y=1.285
Rc450	OUT#8422	OUT#8423	1.345183	$MET4	$L=5.24975e-06
+ $W=2.8e-07	$X=28.44 $Y=-5.7245
Rc457	OUT#8423	OUT#8430	1.345183	$MET4	$L=5.24975e-06
+ $W=2.8e-07	$X=27 $Y=-8.35
Rc458	OUT#8430	OUT#14314	1.176071	$MET4	$L=4.45e-06
+ $W=2.8e-07	$X=27 $Y=-0.875
Rc459	OUT#8423	OUT#3	1.345183	$MET4	$L=5.24975e-06
+ $W=2.8e-07	$X=25.56 $Y=-8.35
Rc460	OUT#3	OUT#14316	1.176071	$MET4	$L=4.45e-06
+ $W=2.8e-07	$X=25.56 $Y=-0.875
Rc461	OUT#8423	OUT#8435	1.345183	$MET4	$L=5.24975e-06
+ $W=2.8e-07	$X=24.12 $Y=-8.35
Rc462	OUT#8435	OUT#14318	1.176071	$MET4	$L=4.45e-06
+ $W=2.8e-07	$X=24.12 $Y=-0.875
Rc463	OUT#14319	OUT#8438	1.176071	$MET4	$L=4.45e-06
+ $W=2.8e-07	$X=28.44 $Y=-10.415
Rc464	OUT#8438	OUT#8439	1.345183	$MET4	$L=5.24975e-06
+ $W=2.8e-07	$X=28.44 $Y=-17.4245
Rc471	OUT#8439	OUT#8446	1.345183	$MET4	$L=5.24975e-06
+ $W=2.8e-07	$X=27 $Y=-20.05
Rc472	OUT#8446	OUT#14329	1.176071	$MET4	$L=4.45e-06
+ $W=2.8e-07	$X=27 $Y=-12.575
Rc473	OUT#8439	OUT#3	1.345183	$MET4	$L=5.24975e-06
+ $W=2.8e-07	$X=25.56 $Y=-20.05
Rc474	OUT#3	OUT#14331	1.176071	$MET4	$L=4.45e-06
+ $W=2.8e-07	$X=25.56 $Y=-12.575
Rc475	OUT#8439	OUT#8451	1.345183	$MET4	$L=5.24975e-06
+ $W=2.8e-07	$X=24.12 $Y=-20.05
Rc476	OUT#8451	OUT#14333	1.176071	$MET4	$L=4.45e-06
+ $W=2.8e-07	$X=24.12 $Y=-12.575
Rc477	VDDHV#13809	VDDHV#177	1.176071	$MET4	$L=4.45e-06
+ $W=2.8e-07	$X=23.4 $Y=-7.485
Rc481	VDDHV#177	VDDHV#8077	1.345245	$MET4	$L=5.25025e-06
+ $W=2.8e-07	$X=24.84 $Y=2.15
Rc482	VDDHV#8077	VDDHV#13815	1.176071	$MET4	$L=4.45e-06
+ $W=2.8e-07	$X=24.84 $Y=-5.325
Rc486	VDDHV#177	VDDHV#13819	1.176071	$MET4	$L=4.45e-06
+ $W=2.8e-07	$X=26.28 $Y=-5.325
Rc488	VDDHV#177	VDDHV#8072	1.345245	$MET4	$L=5.25025e-06
+ $W=2.8e-07	$X=27.72 $Y=2.15
Rc489	VDDHV#8072	VDDHV#13822	1.176071	$MET4	$L=4.45e-06
+ $W=2.8e-07	$X=27.72 $Y=-5.325
Rc491	VDDHV#13824	VDDHV#177	1.176071	$MET4	$L=4.45e-06
+ $W=2.8e-07	$X=23.4 $Y=-19.185
Rc495	VDDHV#177	VDDHV#8094	1.345245	$MET4	$L=5.25025e-06
+ $W=2.8e-07	$X=24.84 $Y=-9.55
Rc496	VDDHV#8094	VDDHV#13830	1.176071	$MET4	$L=4.45e-06
+ $W=2.8e-07	$X=24.84 $Y=-17.025
Rc500	VDDHV#177	VDDHV#13834	1.176071	$MET4	$L=4.45e-06
+ $W=2.8e-07	$X=26.28 $Y=-17.025
Rc502	VDDHV#177	VDDHV#8089	1.345245	$MET4	$L=5.25025e-06
+ $W=2.8e-07	$X=27.72 $Y=-9.55
Rc503	VDDHV#8089	VDDHV#13837	1.176071	$MET4	$L=4.45e-06
+ $W=2.8e-07	$X=27.72 $Y=-17.025
Rc505	OUT#14334	OUT#8454	1.176071	$MET4	$L=4.45e-06
+ $W=2.8e-07	$X=34.48 $Y=1.285
Rc506	OUT#8454	OUT#8455	1.345183	$MET4	$L=5.24975e-06
+ $W=2.8e-07	$X=34.48 $Y=-5.7245
Rc513	OUT#8455	OUT#8462	1.345183	$MET4	$L=5.24975e-06
+ $W=2.8e-07	$X=33.04 $Y=-8.35
Rc514	OUT#8462	OUT#14344	1.176071	$MET4	$L=4.45e-06
+ $W=2.8e-07	$X=33.04 $Y=-0.875
Rc515	OUT#8455	OUT#3	1.345183	$MET4	$L=5.24975e-06
+ $W=2.8e-07	$X=31.6 $Y=-8.35
Rc516	OUT#3	OUT#14346	1.176071	$MET4	$L=4.45e-06
+ $W=2.8e-07	$X=31.6 $Y=-0.875
Rc517	OUT#8455	OUT#8467	1.345183	$MET4	$L=5.24975e-06
+ $W=2.8e-07	$X=30.16 $Y=-8.35
Rc518	OUT#8467	OUT#14348	1.176071	$MET4	$L=4.45e-06
+ $W=2.8e-07	$X=30.16 $Y=-0.875
Rc519	OUT#14349	OUT#8470	1.176071	$MET4	$L=4.45e-06
+ $W=2.8e-07	$X=34.48 $Y=-10.415
Rc520	OUT#8470	OUT#8471	1.345183	$MET4	$L=5.24975e-06
+ $W=2.8e-07	$X=34.48 $Y=-17.4245
Rc527	OUT#8471	OUT#8478	1.345183	$MET4	$L=5.24975e-06
+ $W=2.8e-07	$X=33.04 $Y=-20.05
Rc528	OUT#8478	OUT#14359	1.176071	$MET4	$L=4.45e-06
+ $W=2.8e-07	$X=33.04 $Y=-12.575
Rc529	OUT#8471	OUT#3	1.345183	$MET4	$L=5.24975e-06
+ $W=2.8e-07	$X=31.6 $Y=-20.05
Rc530	OUT#3	OUT#14361	1.176071	$MET4	$L=4.45e-06
+ $W=2.8e-07	$X=31.6 $Y=-12.575
Rc531	OUT#8471	OUT#8483	1.345183	$MET4	$L=5.24975e-06
+ $W=2.8e-07	$X=30.16 $Y=-20.05
Rc532	OUT#8483	OUT#14363	1.176071	$MET4	$L=4.45e-06
+ $W=2.8e-07	$X=30.16 $Y=-12.575
Rc533	VDDHV#13839	VDDHV#177	1.176071	$MET4	$L=4.45e-06
+ $W=2.8e-07	$X=29.44 $Y=-7.485
Rc537	VDDHV#177	VDDHV#8111	1.345245	$MET4	$L=5.25025e-06
+ $W=2.8e-07	$X=30.88 $Y=2.15
Rc538	VDDHV#8111	VDDHV#13845	1.176071	$MET4	$L=4.45e-06
+ $W=2.8e-07	$X=30.88 $Y=-5.325
Rc542	VDDHV#177	VDDHV#13849	1.176071	$MET4	$L=4.45e-06
+ $W=2.8e-07	$X=32.32 $Y=-5.325
Rc544	VDDHV#177	VDDHV#8106	1.345245	$MET4	$L=5.25025e-06
+ $W=2.8e-07	$X=33.76 $Y=2.15
Rc545	VDDHV#8106	VDDHV#13852	1.176071	$MET4	$L=4.45e-06
+ $W=2.8e-07	$X=33.76 $Y=-5.325
Rc547	VDDHV#13854	VDDHV#177	1.176071	$MET4	$L=4.45e-06
+ $W=2.8e-07	$X=29.44 $Y=-19.185
Rc551	VDDHV#177	VDDHV#8128	1.345245	$MET4	$L=5.25025e-06
+ $W=2.8e-07	$X=30.88 $Y=-9.55
Rc552	VDDHV#8128	VDDHV#13860	1.176071	$MET4	$L=4.45e-06
+ $W=2.8e-07	$X=30.88 $Y=-17.025
Rc556	VDDHV#177	VDDHV#13864	1.176071	$MET4	$L=4.45e-06
+ $W=2.8e-07	$X=32.32 $Y=-17.025
Rc558	VDDHV#177	VDDHV#8123	1.345245	$MET4	$L=5.25025e-06
+ $W=2.8e-07	$X=33.76 $Y=-9.55
Rc559	VDDHV#8123	VDDHV#13867	1.176071	$MET4	$L=4.45e-06
+ $W=2.8e-07	$X=33.76 $Y=-17.025
Rc561	OUT#14364	OUT#3	1.176071	$MET4	$L=4.45e-06
+ $W=2.8e-07	$X=40.52 $Y=1.285
Rc562	OUT#3	OUT#8488	1.345183	$MET4	$L=5.24975e-06
+ $W=2.8e-07	$X=40.52 $Y=-5.7245
Rc569	OUT#8488	OUT#8495	1.345183	$MET4	$L=5.24975e-06
+ $W=2.8e-07	$X=39.08 $Y=-8.35
Rc570	OUT#8495	OUT#14374	1.176071	$MET4	$L=4.45e-06
+ $W=2.8e-07	$X=39.08 $Y=-0.875
Rc571	OUT#8488	OUT#3	1.345183	$MET4	$L=5.24975e-06
+ $W=2.8e-07	$X=37.64 $Y=-8.35
Rc572	OUT#3	OUT#14376	1.176071	$MET4	$L=4.45e-06
+ $W=2.8e-07	$X=37.64 $Y=-0.875
Rc573	OUT#8488	OUT#8500	1.345183	$MET4	$L=5.24975e-06
+ $W=2.8e-07	$X=36.2 $Y=-8.35
Rc574	OUT#8500	OUT#14378	1.176071	$MET4	$L=4.45e-06
+ $W=2.8e-07	$X=36.2 $Y=-0.875
Rc575	OUT#14379	OUT#3	1.176071	$MET4	$L=4.45e-06
+ $W=2.8e-07	$X=40.52 $Y=-10.415
Rc576	OUT#3	OUT#8505	1.345183	$MET4	$L=5.24975e-06
+ $W=2.8e-07	$X=40.52 $Y=-17.4245
Rc583	OUT#8505	OUT#8512	1.345183	$MET4	$L=5.24975e-06
+ $W=2.8e-07	$X=39.08 $Y=-20.05
Rc584	OUT#8512	OUT#14389	1.176071	$MET4	$L=4.45e-06
+ $W=2.8e-07	$X=39.08 $Y=-12.575
Rc585	OUT#8505	OUT#3	1.345183	$MET4	$L=5.24975e-06
+ $W=2.8e-07	$X=37.64 $Y=-20.05
Rc586	OUT#3	OUT#14391	1.176071	$MET4	$L=4.45e-06
+ $W=2.8e-07	$X=37.64 $Y=-12.575
Rc587	OUT#8505	OUT#8517	1.345183	$MET4	$L=5.24975e-06
+ $W=2.8e-07	$X=36.2 $Y=-20.05
Rc588	OUT#8517	OUT#14393	1.176071	$MET4	$L=4.45e-06
+ $W=2.8e-07	$X=36.2 $Y=-12.575
Rc589	VDDHV#13869	VDDHV#177	1.176071	$MET4	$L=4.45e-06
+ $W=2.8e-07	$X=35.48 $Y=-7.485
Rc593	VDDHV#177	VDDHV#8145	1.345245	$MET4	$L=5.25025e-06
+ $W=2.8e-07	$X=36.92 $Y=2.15
Rc594	VDDHV#8145	VDDHV#13875	1.176071	$MET4	$L=4.45e-06
+ $W=2.8e-07	$X=36.92 $Y=-5.325
Rc598	VDDHV#177	VDDHV#13879	1.176071	$MET4	$L=4.45e-06
+ $W=2.8e-07	$X=38.36 $Y=-5.325
Rc600	VDDHV#177	VDDHV#8140	1.345245	$MET4	$L=5.25025e-06
+ $W=2.8e-07	$X=39.8 $Y=2.15
Rc601	VDDHV#8140	VDDHV#13882	1.176071	$MET4	$L=4.45e-06
+ $W=2.8e-07	$X=39.8 $Y=-5.325
Rc603	VDDHV#13884	VDDHV#177	1.176071	$MET4	$L=4.45e-06
+ $W=2.8e-07	$X=35.48 $Y=-19.185
Rc607	VDDHV#177	VDDHV#8162	1.345245	$MET4	$L=5.25025e-06
+ $W=2.8e-07	$X=36.92 $Y=-9.55
Rc608	VDDHV#8162	VDDHV#13890	1.176071	$MET4	$L=4.45e-06
+ $W=2.8e-07	$X=36.92 $Y=-17.025
Rc612	VDDHV#177	VDDHV#13894	1.176071	$MET4	$L=4.45e-06
+ $W=2.8e-07	$X=38.36 $Y=-17.025
Rc614	VDDHV#177	VDDHV#8157	1.345245	$MET4	$L=5.25025e-06
+ $W=2.8e-07	$X=39.8 $Y=-9.55
Rc615	VDDHV#8157	VDDHV#13897	1.176071	$MET4	$L=4.45e-06
+ $W=2.8e-07	$X=39.8 $Y=-17.025
Rc617	OUT#14394	OUT#3	1.176071	$MET4	$L=4.45e-06
+ $W=2.8e-07	$X=46.56 $Y=1.285
Rc618	OUT#3	OUT#8522	1.345183	$MET4	$L=5.24975e-06
+ $W=2.8e-07	$X=46.56 $Y=-5.7245
Rc625	OUT#8522	OUT#3	1.345183	$MET4	$L=5.24975e-06
+ $W=2.8e-07	$X=45.12 $Y=-8.35
Rc626	OUT#3	OUT#14404	1.176071	$MET4	$L=4.45e-06
+ $W=2.8e-07	$X=45.12 $Y=-0.875
Rc627	OUT#8522	OUT#3	1.345183	$MET4	$L=5.24975e-06
+ $W=2.8e-07	$X=43.68 $Y=-8.35
Rc628	OUT#3	OUT#14406	1.176071	$MET4	$L=4.45e-06
+ $W=2.8e-07	$X=43.68 $Y=-0.875
Rc629	OUT#8522	OUT#3	1.345183	$MET4	$L=5.24975e-06
+ $W=2.8e-07	$X=42.24 $Y=-8.35
Rc630	OUT#3	OUT#14408	1.176071	$MET4	$L=4.45e-06
+ $W=2.8e-07	$X=42.24 $Y=-0.875
Rc631	OUT#14409	OUT#3	1.176071	$MET4	$L=4.45e-06
+ $W=2.8e-07	$X=46.56 $Y=-10.415
Rc632	OUT#3	OUT#8541	1.345183	$MET4	$L=5.24975e-06
+ $W=2.8e-07	$X=46.56 $Y=-17.4245
Rc639	OUT#8541	OUT#3	1.345183	$MET4	$L=5.24975e-06
+ $W=2.8e-07	$X=45.12 $Y=-20.05
Rc640	OUT#3	OUT#14419	1.176071	$MET4	$L=4.45e-06
+ $W=2.8e-07	$X=45.12 $Y=-12.575
Rc641	OUT#8541	OUT#3	1.345183	$MET4	$L=5.24975e-06
+ $W=2.8e-07	$X=43.68 $Y=-20.05
Rc642	OUT#3	OUT#14421	1.176071	$MET4	$L=4.45e-06
+ $W=2.8e-07	$X=43.68 $Y=-12.575
Rc643	OUT#8541	OUT#3	1.345183	$MET4	$L=5.24975e-06
+ $W=2.8e-07	$X=42.24 $Y=-20.05
Rc644	OUT#3	OUT#14423	1.176071	$MET4	$L=4.45e-06
+ $W=2.8e-07	$X=42.24 $Y=-12.575
Rc645	VDDHV#13899	VDDHV#177	1.176071	$MET4	$L=4.45e-06
+ $W=2.8e-07	$X=41.52 $Y=-7.485
Rc650	VDDHV#177	VDDHV#13905	1.176071	$MET4	$L=4.45e-06
+ $W=2.8e-07	$X=42.96 $Y=-5.325
Rc654	VDDHV#177	VDDHV#13909	1.176071	$MET4	$L=4.45e-06
+ $W=2.8e-07	$X=44.4 $Y=-5.325
Rc657	VDDHV#177	VDDHV#13912	1.176071	$MET4	$L=4.45e-06
+ $W=2.8e-07	$X=45.84 $Y=-5.325
Rc659	VDDHV#13914	VDDHV#177	1.176071	$MET4	$L=4.45e-06
+ $W=2.8e-07	$X=41.52 $Y=-19.185
Rc664	VDDHV#177	VDDHV#13920	1.176071	$MET4	$L=4.45e-06
+ $W=2.8e-07	$X=42.96 $Y=-17.025
Rc668	VDDHV#177	VDDHV#13924	1.176071	$MET4	$L=4.45e-06
+ $W=2.8e-07	$X=44.4 $Y=-17.025
Rc671	VDDHV#177	VDDHV#13927	1.176071	$MET4	$L=4.45e-06
+ $W=2.8e-07	$X=45.84 $Y=-17.025
Rc673	GNDHV#3149	GNDHV#332	1.176071	$MET4	$L=4.45e-06
+ $W=2.8e-07	$X=47.96 $Y=73.61
Rc682	GNDHV#332	GNDHV#3159	1.176071	$MET4	$L=4.45e-06
+ $W=2.8e-07	$X=47.96 $Y=72.17
Rc684	GNDHV#332	GNDHV#3161	1.176071	$MET4	$L=4.45e-06
+ $W=2.8e-07	$X=47.96 $Y=70.73
Rc686	GNDHV#332	GNDHV#3163	1.176071	$MET4	$L=4.45e-06
+ $W=2.8e-07	$X=47.96 $Y=69.29
Rc687	GNDHV#3164	GNDHV#330	1.176071	$MET4	$L=4.45e-06
+ $W=2.8e-07	$X=47.96 $Y=67.57
Rc696	GNDHV#330	GNDHV#3174	1.176071	$MET4	$L=4.45e-06
+ $W=2.8e-07	$X=47.96 $Y=66.13
Rc698	GNDHV#330	GNDHV#3176	1.176071	$MET4	$L=4.45e-06
+ $W=2.8e-07	$X=47.96 $Y=64.69
Rc700	GNDHV#330	GNDHV#3178	1.176071	$MET4	$L=4.45e-06
+ $W=2.8e-07	$X=47.96 $Y=63.25
Rc701	GNDHV#3179	GNDHV#328	1.176071	$MET4	$L=4.45e-06
+ $W=2.8e-07	$X=47.96 $Y=61.53
Rc710	GNDHV#328	GNDHV#3189	1.176071	$MET4	$L=4.45e-06
+ $W=2.8e-07	$X=47.96 $Y=60.09
Rc712	GNDHV#328	GNDHV#3191	1.176071	$MET4	$L=4.45e-06
+ $W=2.8e-07	$X=47.96 $Y=58.65
Rc714	GNDHV#328	GNDHV#3193	1.176071	$MET4	$L=4.45e-06
+ $W=2.8e-07	$X=47.96 $Y=57.21
Rc715	GNDHV#3194	GNDHV#326	1.176071	$MET4	$L=4.45e-06
+ $W=2.8e-07	$X=47.96 $Y=55.49
Rc724	GNDHV#326	GNDHV#3204	1.176071	$MET4	$L=4.45e-06
+ $W=2.8e-07	$X=47.96 $Y=54.05
Rc726	GNDHV#326	GNDHV#3206	1.176071	$MET4	$L=4.45e-06
+ $W=2.8e-07	$X=47.96 $Y=52.61
Rc728	GNDHV#326	GNDHV#3208	1.176071	$MET4	$L=4.45e-06
+ $W=2.8e-07	$X=47.96 $Y=51.17
Rc729	GNDHV#3209	GNDHV#324	1.176071	$MET4	$L=4.45e-06
+ $W=2.8e-07	$X=47.96 $Y=49.45
Rc738	GNDHV#324	GNDHV#3219	1.176071	$MET4	$L=4.45e-06
+ $W=2.8e-07	$X=47.96 $Y=48.01
Rc740	GNDHV#324	GNDHV#3221	1.176071	$MET4	$L=4.45e-06
+ $W=2.8e-07	$X=47.96 $Y=46.57
Rc742	GNDHV#324	GNDHV#3223	1.176071	$MET4	$L=4.45e-06
+ $W=2.8e-07	$X=47.96 $Y=45.13
Rc743	GNDHV#3224	GNDHV#322	1.176071	$MET4	$L=4.45e-06
+ $W=2.8e-07	$X=47.96 $Y=43.41
Rc752	GNDHV#322	GNDHV#3234	1.176071	$MET4	$L=4.45e-06
+ $W=2.8e-07	$X=47.96 $Y=41.97
Rc754	GNDHV#322	GNDHV#3236	1.176071	$MET4	$L=4.45e-06
+ $W=2.8e-07	$X=47.96 $Y=40.53
Rc756	GNDHV#322	GNDHV#3238	1.176071	$MET4	$L=4.45e-06
+ $W=2.8e-07	$X=47.96 $Y=39.09
Rc757	GNDHV#3239	GNDHV#320	1.176071	$MET4	$L=4.45e-06
+ $W=2.8e-07	$X=47.96 $Y=37.37
Rc766	GNDHV#320	GNDHV#3249	1.176071	$MET4	$L=4.45e-06
+ $W=2.8e-07	$X=47.96 $Y=35.93
Rc768	GNDHV#320	GNDHV#3251	1.176071	$MET4	$L=4.45e-06
+ $W=2.8e-07	$X=47.96 $Y=34.49
Rc770	GNDHV#320	GNDHV#3253	1.176071	$MET4	$L=4.45e-06
+ $W=2.8e-07	$X=47.96 $Y=33.05
Rc771	GNDHV#3254	GNDHV#318	1.176071	$MET4	$L=4.45e-06
+ $W=2.8e-07	$X=47.96 $Y=31.33
Rc780	GNDHV#318	GNDHV#3264	1.176071	$MET4	$L=4.45e-06
+ $W=2.8e-07	$X=47.96 $Y=29.89
Rc782	GNDHV#318	GNDHV#3266	1.176071	$MET4	$L=4.45e-06
+ $W=2.8e-07	$X=47.96 $Y=28.45
Rc784	GNDHV#318	GNDHV#3268	1.176071	$MET4	$L=4.45e-06
+ $W=2.8e-07	$X=47.96 $Y=27.01
Rc785	GNDHV#3269	GNDHV#316	1.176071	$MET4	$L=4.45e-06
+ $W=2.8e-07	$X=47.96 $Y=25.29
Rc794	GNDHV#316	GNDHV#3279	1.176071	$MET4	$L=4.45e-06
+ $W=2.8e-07	$X=47.96 $Y=23.85
Rc796	GNDHV#316	GNDHV#3281	1.176071	$MET4	$L=4.45e-06
+ $W=2.8e-07	$X=47.96 $Y=22.41
Rc798	GNDHV#316	GNDHV#3283	1.176071	$MET4	$L=4.45e-06
+ $W=2.8e-07	$X=47.96 $Y=20.97
Rc799	GNDHV#3284	GNDHV#314	1.176071	$MET4	$L=4.45e-06
+ $W=2.8e-07	$X=47.96 $Y=19.25
Rc808	GNDHV#314	GNDHV#3294	1.176071	$MET4	$L=4.45e-06
+ $W=2.8e-07	$X=47.96 $Y=17.81
Rc810	GNDHV#314	GNDHV#3296	1.176071	$MET4	$L=4.45e-06
+ $W=2.8e-07	$X=47.96 $Y=16.37
Rc812	GNDHV#314	GNDHV#3298	1.176071	$MET4	$L=4.45e-06
+ $W=2.8e-07	$X=47.96 $Y=14.93
Rc813	GATEN	GATEN#202	1.176071	$MET4	$L=4.45e-06
+ $W=2.8e-07	$X=43.51 $Y=74.33
Rc822	GATEN#202	GATEN#3181	1.176071	$MET4	$L=4.45e-06
+ $W=2.8e-07	$X=43.51 $Y=72.89
Rc824	GATEN#202	GATEN#3183	1.176071	$MET4	$L=4.45e-06
+ $W=2.8e-07	$X=43.51 $Y=71.45
Rc826	GATEN#202	GATEN#3185	1.176071	$MET4	$L=4.45e-06
+ $W=2.8e-07	$X=43.51 $Y=70.01
Rc827	GATEN#3186	GATEN#210	1.176071	$MET4	$L=4.45e-06
+ $W=2.8e-07	$X=43.51 $Y=68.29
Rc836	GATEN#210	GATEN#3196	1.176071	$MET4	$L=4.45e-06
+ $W=2.8e-07	$X=43.51 $Y=66.85
Rc838	GATEN#210	GATEN#3198	1.176071	$MET4	$L=4.45e-06
+ $W=2.8e-07	$X=43.51 $Y=65.41
Rc840	GATEN#210	GATEN#3200	1.176071	$MET4	$L=4.45e-06
+ $W=2.8e-07	$X=43.51 $Y=63.97
Rc841	GATEN#3201	GATEN#218	1.176071	$MET4	$L=4.45e-06
+ $W=2.8e-07	$X=43.51 $Y=62.25
Rc850	GATEN#218	GATEN#3211	1.176071	$MET4	$L=4.45e-06
+ $W=2.8e-07	$X=43.51 $Y=60.81
Rc852	GATEN#218	GATEN#3213	1.176071	$MET4	$L=4.45e-06
+ $W=2.8e-07	$X=43.51 $Y=59.37
Rc854	GATEN#218	GATEN#3215	1.176071	$MET4	$L=4.45e-06
+ $W=2.8e-07	$X=43.51 $Y=57.93
Rc855	GATEN#3216	GATEN#226	1.176071	$MET4	$L=4.45e-06
+ $W=2.8e-07	$X=43.51 $Y=56.21
Rc864	GATEN#226	GATEN#3226	1.176071	$MET4	$L=4.45e-06
+ $W=2.8e-07	$X=43.51 $Y=54.77
Rc866	GATEN#226	GATEN#3228	1.176071	$MET4	$L=4.45e-06
+ $W=2.8e-07	$X=43.51 $Y=53.33
Rc868	GATEN#226	GATEN#3230	1.176071	$MET4	$L=4.45e-06
+ $W=2.8e-07	$X=43.51 $Y=51.89
Rc869	GATEN#3231	GATEN#234	1.176071	$MET4	$L=4.45e-06
+ $W=2.8e-07	$X=43.51 $Y=50.17
Rc878	GATEN#234	GATEN#3241	1.176071	$MET4	$L=4.45e-06
+ $W=2.8e-07	$X=43.51 $Y=48.73
Rc880	GATEN#234	GATEN#3243	1.176071	$MET4	$L=4.45e-06
+ $W=2.8e-07	$X=43.51 $Y=47.29
Rc882	GATEN#234	GATEN#3245	1.176071	$MET4	$L=4.45e-06
+ $W=2.8e-07	$X=43.51 $Y=45.85
Rc883	GATEN#3246	GATEN#242	1.176071	$MET4	$L=4.45e-06
+ $W=2.8e-07	$X=43.51 $Y=44.13
Rc892	GATEN#242	GATEN#3256	1.176071	$MET4	$L=4.45e-06
+ $W=2.8e-07	$X=43.51 $Y=42.69
Rc894	GATEN#242	GATEN#3258	1.176071	$MET4	$L=4.45e-06
+ $W=2.8e-07	$X=43.51 $Y=41.25
Rc896	GATEN#242	GATEN#3260	1.176071	$MET4	$L=4.45e-06
+ $W=2.8e-07	$X=43.51 $Y=39.81
Rc897	GATEN#3261	GATEN#250	1.176071	$MET4	$L=4.45e-06
+ $W=2.8e-07	$X=43.51 $Y=38.09
Rc906	GATEN#250	GATEN#3271	1.176071	$MET4	$L=4.45e-06
+ $W=2.8e-07	$X=43.51 $Y=36.65
Rc908	GATEN#250	GATEN#3273	1.176071	$MET4	$L=4.45e-06
+ $W=2.8e-07	$X=43.51 $Y=35.21
Rc910	GATEN#250	GATEN#3275	1.176071	$MET4	$L=4.45e-06
+ $W=2.8e-07	$X=43.51 $Y=33.77
Rc911	GATEN#3276	GATEN#258	1.176071	$MET4	$L=4.45e-06
+ $W=2.8e-07	$X=43.51 $Y=32.05
Rc920	GATEN#258	GATEN#3286	1.176071	$MET4	$L=4.45e-06
+ $W=2.8e-07	$X=43.51 $Y=30.61
Rc922	GATEN#258	GATEN#3288	1.176071	$MET4	$L=4.45e-06
+ $W=2.8e-07	$X=43.51 $Y=29.17
Rc924	GATEN#258	GATEN#3290	1.176071	$MET4	$L=4.45e-06
+ $W=2.8e-07	$X=43.51 $Y=27.73
Rc925	GATEN#3291	GATEN#266	1.176071	$MET4	$L=4.45e-06
+ $W=2.8e-07	$X=43.51 $Y=26.01
Rc934	GATEN#266	GATEN#3301	1.176071	$MET4	$L=4.45e-06
+ $W=2.8e-07	$X=43.51 $Y=24.57
Rc936	GATEN#266	GATEN#3303	1.176071	$MET4	$L=4.45e-06
+ $W=2.8e-07	$X=43.51 $Y=23.13
Rc938	GATEN#266	GATEN#3305	1.176071	$MET4	$L=4.45e-06
+ $W=2.8e-07	$X=43.51 $Y=21.69
Rc939	GATEN#3306	GATEN#274	1.176071	$MET4	$L=4.45e-06
+ $W=2.8e-07	$X=43.51 $Y=19.97
Rc948	GATEN#274	GATEN#3316	1.176071	$MET4	$L=4.45e-06
+ $W=2.8e-07	$X=43.51 $Y=18.53
Rc950	GATEN#274	GATEN#3318	1.176071	$MET4	$L=4.45e-06
+ $W=2.8e-07	$X=43.51 $Y=17.09
Rc952	GATEN#274	GATEN#3320	1.176071	$MET4	$L=4.45e-06
+ $W=2.8e-07	$X=43.51 $Y=15.65
Rc953	OUT#14424	OUT#3	1.176071	$MET4	$L=4.45e-06
+ $W=2.8e-07	$X=52.6 $Y=1.285
Rc954	OUT#3	OUT#8560	1.345183	$MET4	$L=5.24975e-06
+ $W=2.8e-07	$X=52.6 $Y=-5.7245
Rc961	OUT#8560	OUT#3	1.345183	$MET4	$L=5.24975e-06
+ $W=2.8e-07	$X=51.16 $Y=-8.35
Rc962	OUT#3	OUT#14434	1.176071	$MET4	$L=4.45e-06
+ $W=2.8e-07	$X=51.16 $Y=-0.875
Rc963	OUT#8560	OUT#3	1.345183	$MET4	$L=5.24975e-06
+ $W=2.8e-07	$X=49.72 $Y=-8.35
Rc964	OUT#3	OUT#14436	1.176071	$MET4	$L=4.45e-06
+ $W=2.8e-07	$X=49.72 $Y=-0.875
Rc965	OUT#8560	OUT#3	1.345183	$MET4	$L=5.24975e-06
+ $W=2.8e-07	$X=48.28 $Y=-8.35
Rc966	OUT#3	OUT#14438	1.176071	$MET4	$L=4.45e-06
+ $W=2.8e-07	$X=48.28 $Y=-0.875
Rc967	OUT#14439	OUT#3	1.176071	$MET4	$L=4.45e-06
+ $W=2.8e-07	$X=52.6 $Y=-10.415
Rc968	OUT#3	OUT#8579	1.345183	$MET4	$L=5.24975e-06
+ $W=2.8e-07	$X=52.6 $Y=-17.4245
Rc975	OUT#8579	OUT#3	1.345183	$MET4	$L=5.24975e-06
+ $W=2.8e-07	$X=51.16 $Y=-20.05
Rc976	OUT#3	OUT#14449	1.176071	$MET4	$L=4.45e-06
+ $W=2.8e-07	$X=51.16 $Y=-12.575
Rc977	OUT#8579	OUT#3	1.345183	$MET4	$L=5.24975e-06
+ $W=2.8e-07	$X=49.72 $Y=-20.05
Rc978	OUT#3	OUT#14451	1.176071	$MET4	$L=4.45e-06
+ $W=2.8e-07	$X=49.72 $Y=-12.575
Rc979	OUT#8579	OUT#3	1.345183	$MET4	$L=5.24975e-06
+ $W=2.8e-07	$X=48.28 $Y=-20.05
Rc980	OUT#3	OUT#14453	1.176071	$MET4	$L=4.45e-06
+ $W=2.8e-07	$X=48.28 $Y=-12.575
Rc981	VDDHV#13929	VDDHV#177	1.176071	$MET4	$L=4.45e-06
+ $W=2.8e-07	$X=47.56 $Y=-7.485
Rc986	VDDHV#177	VDDHV#13935	1.176071	$MET4	$L=4.45e-06
+ $W=2.8e-07	$X=49 $Y=-5.325
Rc990	VDDHV#177	VDDHV#13939	1.176071	$MET4	$L=4.45e-06
+ $W=2.8e-07	$X=50.44 $Y=-5.325
Rc993	VDDHV#177	VDDHV#13942	1.176071	$MET4	$L=4.45e-06
+ $W=2.8e-07	$X=51.88 $Y=-5.325
Rc995	VDDHV#13944	VDDHV#177	1.176071	$MET4	$L=4.45e-06
+ $W=2.8e-07	$X=47.56 $Y=-19.185
Rc1000	VDDHV#177	VDDHV#13950	1.176071	$MET4	$L=4.45e-06
+ $W=2.8e-07	$X=49 $Y=-17.025
Rc1004	VDDHV#177	VDDHV#13954	1.176071	$MET4	$L=4.45e-06
+ $W=2.8e-07	$X=50.44 $Y=-17.025
Rc1007	VDDHV#177	VDDHV#13957	1.176071	$MET4	$L=4.45e-06
+ $W=2.8e-07	$X=51.88 $Y=-17.025
Rc1009	OUT#14454	OUT#3	1.176071	$MET4	$L=4.45e-06
+ $W=2.8e-07	$X=58.64 $Y=1.285
Rc1010	OUT#3	OUT#8598	1.345183	$MET4	$L=5.24975e-06
+ $W=2.8e-07	$X=58.64 $Y=-5.7245
Rc1017	OUT#8598	OUT#3	1.345183	$MET4	$L=5.24975e-06
+ $W=2.8e-07	$X=57.2 $Y=-8.35
Rc1018	OUT#3	OUT#14464	1.176071	$MET4	$L=4.45e-06
+ $W=2.8e-07	$X=57.2 $Y=-0.875
Rc1019	OUT#8598	OUT#3	1.345183	$MET4	$L=5.24975e-06
+ $W=2.8e-07	$X=55.76 $Y=-8.35
Rc1020	OUT#3	OUT#14466	1.176071	$MET4	$L=4.45e-06
+ $W=2.8e-07	$X=55.76 $Y=-0.875
Rc1021	OUT#8598	OUT#3	1.345183	$MET4	$L=5.24975e-06
+ $W=2.8e-07	$X=54.32 $Y=-8.35
Rc1022	OUT#3	OUT#14468	1.176071	$MET4	$L=4.45e-06
+ $W=2.8e-07	$X=54.32 $Y=-0.875
Rc1023	OUT#14469	OUT#3	1.176071	$MET4	$L=4.45e-06
+ $W=2.8e-07	$X=58.64 $Y=-10.415
Rc1024	OUT#3	OUT#8617	1.345183	$MET4	$L=5.24975e-06
+ $W=2.8e-07	$X=58.64 $Y=-17.4245
Rc1031	OUT#8617	OUT#3	1.345183	$MET4	$L=5.24975e-06
+ $W=2.8e-07	$X=57.2 $Y=-20.05
Rc1032	OUT#3	OUT#14479	1.176071	$MET4	$L=4.45e-06
+ $W=2.8e-07	$X=57.2 $Y=-12.575
Rc1033	OUT#8617	OUT#3	1.345183	$MET4	$L=5.24975e-06
+ $W=2.8e-07	$X=55.76 $Y=-20.05
Rc1034	OUT#3	OUT#14481	1.176071	$MET4	$L=4.45e-06
+ $W=2.8e-07	$X=55.76 $Y=-12.575
Rc1035	OUT#8617	OUT#3	1.345183	$MET4	$L=5.24975e-06
+ $W=2.8e-07	$X=54.32 $Y=-20.05
Rc1036	OUT#3	OUT#14483	1.176071	$MET4	$L=4.45e-06
+ $W=2.8e-07	$X=54.32 $Y=-12.575
Rc1037	VDDHV#13959	VDDHV#177	1.176071	$MET4	$L=4.45e-06
+ $W=2.8e-07	$X=53.6 $Y=-7.485
Rc1042	VDDHV#177	VDDHV#13965	1.176071	$MET4	$L=4.45e-06
+ $W=2.8e-07	$X=55.04 $Y=-5.325
Rc1046	VDDHV#177	VDDHV#13969	1.176071	$MET4	$L=4.45e-06
+ $W=2.8e-07	$X=56.48 $Y=-5.325
Rc1049	VDDHV#177	VDDHV#13972	1.176071	$MET4	$L=4.45e-06
+ $W=2.8e-07	$X=57.92 $Y=-5.325
Rc1051	VDDHV#13974	VDDHV#177	1.176071	$MET4	$L=4.45e-06
+ $W=2.8e-07	$X=53.6 $Y=-19.185
Rc1056	VDDHV#177	VDDHV#13980	1.176071	$MET4	$L=4.45e-06
+ $W=2.8e-07	$X=55.04 $Y=-17.025
Rc1060	VDDHV#177	VDDHV#13984	1.176071	$MET4	$L=4.45e-06
+ $W=2.8e-07	$X=56.48 $Y=-17.025
Rc1063	VDDHV#177	VDDHV#13987	1.176071	$MET4	$L=4.45e-06
+ $W=2.8e-07	$X=57.92 $Y=-17.025
Rc1065	GNDHV#3299	GNDHV#337	1.176071	$MET4	$L=4.45e-06
+ $W=2.8e-07	$X=59.66 $Y=73.61
Rc1074	GNDHV#337	GNDHV#3309	1.176071	$MET4	$L=4.45e-06
+ $W=2.8e-07	$X=59.66 $Y=72.17
Rc1076	GNDHV#337	GNDHV#3311	1.176071	$MET4	$L=4.45e-06
+ $W=2.8e-07	$X=59.66 $Y=70.73
Rc1078	GNDHV#337	GNDHV#3313	1.176071	$MET4	$L=4.45e-06
+ $W=2.8e-07	$X=59.66 $Y=69.29
Rc1079	GNDHV#3314	GNDHV#339	1.176071	$MET4	$L=4.45e-06
+ $W=2.8e-07	$X=59.66 $Y=67.57
Rc1088	GNDHV#339	GNDHV#3324	1.176071	$MET4	$L=4.45e-06
+ $W=2.8e-07	$X=59.66 $Y=66.13
Rc1090	GNDHV#339	GNDHV#3326	1.176071	$MET4	$L=4.45e-06
+ $W=2.8e-07	$X=59.66 $Y=64.69
Rc1092	GNDHV#339	GNDHV#3328	1.176071	$MET4	$L=4.45e-06
+ $W=2.8e-07	$X=59.66 $Y=63.25
Rc1093	GNDHV#3329	GNDHV#341	1.176071	$MET4	$L=4.45e-06
+ $W=2.8e-07	$X=59.66 $Y=61.53
Rc1102	GNDHV#341	GNDHV#3339	1.176071	$MET4	$L=4.45e-06
+ $W=2.8e-07	$X=59.66 $Y=60.09
Rc1104	GNDHV#341	GNDHV#3341	1.176071	$MET4	$L=4.45e-06
+ $W=2.8e-07	$X=59.66 $Y=58.65
Rc1106	GNDHV#341	GNDHV#3343	1.176071	$MET4	$L=4.45e-06
+ $W=2.8e-07	$X=59.66 $Y=57.21
Rc1107	GNDHV#3344	GNDHV#343	1.176071	$MET4	$L=4.45e-06
+ $W=2.8e-07	$X=59.66 $Y=55.49
Rc1116	GNDHV#343	GNDHV#3354	1.176071	$MET4	$L=4.45e-06
+ $W=2.8e-07	$X=59.66 $Y=54.05
Rc1118	GNDHV#343	GNDHV#3356	1.176071	$MET4	$L=4.45e-06
+ $W=2.8e-07	$X=59.66 $Y=52.61
Rc1120	GNDHV#343	GNDHV#3358	1.176071	$MET4	$L=4.45e-06
+ $W=2.8e-07	$X=59.66 $Y=51.17
Rc1121	GNDHV#3359	GNDHV#345	1.176071	$MET4	$L=4.45e-06
+ $W=2.8e-07	$X=59.66 $Y=49.45
Rc1130	GNDHV#345	GNDHV#3369	1.176071	$MET4	$L=4.45e-06
+ $W=2.8e-07	$X=59.66 $Y=48.01
Rc1132	GNDHV#345	GNDHV#3371	1.176071	$MET4	$L=4.45e-06
+ $W=2.8e-07	$X=59.66 $Y=46.57
Rc1134	GNDHV#345	GNDHV#3373	1.176071	$MET4	$L=4.45e-06
+ $W=2.8e-07	$X=59.66 $Y=45.13
Rc1135	GNDHV#3374	GNDHV#347	1.176071	$MET4	$L=4.45e-06
+ $W=2.8e-07	$X=59.66 $Y=43.41
Rc1144	GNDHV#347	GNDHV#3384	1.176071	$MET4	$L=4.45e-06
+ $W=2.8e-07	$X=59.66 $Y=41.97
Rc1146	GNDHV#347	GNDHV#3386	1.176071	$MET4	$L=4.45e-06
+ $W=2.8e-07	$X=59.66 $Y=40.53
Rc1148	GNDHV#347	GNDHV#3388	1.176071	$MET4	$L=4.45e-06
+ $W=2.8e-07	$X=59.66 $Y=39.09
Rc1149	GNDHV#3389	GNDHV#349	1.176071	$MET4	$L=4.45e-06
+ $W=2.8e-07	$X=59.66 $Y=37.37
Rc1158	GNDHV#349	GNDHV#3399	1.176071	$MET4	$L=4.45e-06
+ $W=2.8e-07	$X=59.66 $Y=35.93
Rc1160	GNDHV#349	GNDHV#3401	1.176071	$MET4	$L=4.45e-06
+ $W=2.8e-07	$X=59.66 $Y=34.49
Rc1162	GNDHV#349	GNDHV#3403	1.176071	$MET4	$L=4.45e-06
+ $W=2.8e-07	$X=59.66 $Y=33.05
Rc1163	GNDHV#3404	GNDHV#351	1.176071	$MET4	$L=4.45e-06
+ $W=2.8e-07	$X=59.66 $Y=31.33
Rc1172	GNDHV#351	GNDHV#3414	1.176071	$MET4	$L=4.45e-06
+ $W=2.8e-07	$X=59.66 $Y=29.89
Rc1174	GNDHV#351	GNDHV#3416	1.176071	$MET4	$L=4.45e-06
+ $W=2.8e-07	$X=59.66 $Y=28.45
Rc1176	GNDHV#351	GNDHV#3418	1.176071	$MET4	$L=4.45e-06
+ $W=2.8e-07	$X=59.66 $Y=27.01
Rc1177	GNDHV#3419	GNDHV#353	1.176071	$MET4	$L=4.45e-06
+ $W=2.8e-07	$X=59.66 $Y=25.29
Rc1186	GNDHV#353	GNDHV#3429	1.176071	$MET4	$L=4.45e-06
+ $W=2.8e-07	$X=59.66 $Y=23.85
Rc1188	GNDHV#353	GNDHV#3431	1.176071	$MET4	$L=4.45e-06
+ $W=2.8e-07	$X=59.66 $Y=22.41
Rc1190	GNDHV#353	GNDHV#3433	1.176071	$MET4	$L=4.45e-06
+ $W=2.8e-07	$X=59.66 $Y=20.97
Rc1191	GNDHV#3434	GNDHV#204	1.176071	$MET4	$L=4.45e-06
+ $W=2.8e-07	$X=59.66 $Y=19.25
Rc1200	GNDHV#204	GNDHV#3444	1.176071	$MET4	$L=4.45e-06
+ $W=2.8e-07	$X=59.66 $Y=17.81
Rc1202	GNDHV#204	GNDHV#3446	1.176071	$MET4	$L=4.45e-06
+ $W=2.8e-07	$X=59.66 $Y=16.37
Rc1204	GNDHV#204	GNDHV#3448	1.176071	$MET4	$L=4.45e-06
+ $W=2.8e-07	$X=59.66 $Y=14.93
Rc1205	GATEN#3321	GATEN#202	1.176071	$MET4	$L=4.45e-06
+ $W=2.8e-07	$X=55.21 $Y=74.33
Rc1214	GATEN#202	GATEN#3331	1.176071	$MET4	$L=4.45e-06
+ $W=2.8e-07	$X=55.21 $Y=72.89
Rc1216	GATEN#202	GATEN#3333	1.176071	$MET4	$L=4.45e-06
+ $W=2.8e-07	$X=55.21 $Y=71.45
Rc1218	GATEN#202	GATEN#3335	1.176071	$MET4	$L=4.45e-06
+ $W=2.8e-07	$X=55.21 $Y=70.01
Rc1219	GATEN#3336	GATEN#290	1.176071	$MET4	$L=4.45e-06
+ $W=2.8e-07	$X=55.21 $Y=68.29
Rc1228	GATEN#290	GATEN#3346	1.176071	$MET4	$L=4.45e-06
+ $W=2.8e-07	$X=55.21 $Y=66.85
Rc1230	GATEN#290	GATEN#3348	1.176071	$MET4	$L=4.45e-06
+ $W=2.8e-07	$X=55.21 $Y=65.41
Rc1232	GATEN#290	GATEN#3350	1.176071	$MET4	$L=4.45e-06
+ $W=2.8e-07	$X=55.21 $Y=63.97
Rc1233	GATEN#3351	GATEN#298	1.176071	$MET4	$L=4.45e-06
+ $W=2.8e-07	$X=55.21 $Y=62.25
Rc1242	GATEN#298	GATEN#3361	1.176071	$MET4	$L=4.45e-06
+ $W=2.8e-07	$X=55.21 $Y=60.81
Rc1244	GATEN#298	GATEN#3363	1.176071	$MET4	$L=4.45e-06
+ $W=2.8e-07	$X=55.21 $Y=59.37
Rc1246	GATEN#298	GATEN#3365	1.176071	$MET4	$L=4.45e-06
+ $W=2.8e-07	$X=55.21 $Y=57.93
Rc1247	GATEN#3366	GATEN#306	1.176071	$MET4	$L=4.45e-06
+ $W=2.8e-07	$X=55.21 $Y=56.21
Rc1256	GATEN#306	GATEN#3376	1.176071	$MET4	$L=4.45e-06
+ $W=2.8e-07	$X=55.21 $Y=54.77
Rc1258	GATEN#306	GATEN#3378	1.176071	$MET4	$L=4.45e-06
+ $W=2.8e-07	$X=55.21 $Y=53.33
Rc1260	GATEN#306	GATEN#3380	1.176071	$MET4	$L=4.45e-06
+ $W=2.8e-07	$X=55.21 $Y=51.89
Rc1261	GATEN#3381	GATEN#314	1.176071	$MET4	$L=4.45e-06
+ $W=2.8e-07	$X=55.21 $Y=50.17
Rc1270	GATEN#314	GATEN#3391	1.176071	$MET4	$L=4.45e-06
+ $W=2.8e-07	$X=55.21 $Y=48.73
Rc1272	GATEN#314	GATEN#3393	1.176071	$MET4	$L=4.45e-06
+ $W=2.8e-07	$X=55.21 $Y=47.29
Rc1274	GATEN#314	GATEN#3395	1.176071	$MET4	$L=4.45e-06
+ $W=2.8e-07	$X=55.21 $Y=45.85
Rc1275	GATEN#3396	GATEN#322	1.176071	$MET4	$L=4.45e-06
+ $W=2.8e-07	$X=55.21 $Y=44.13
Rc1284	GATEN#322	GATEN#3406	1.176071	$MET4	$L=4.45e-06
+ $W=2.8e-07	$X=55.21 $Y=42.69
Rc1286	GATEN#322	GATEN#3408	1.176071	$MET4	$L=4.45e-06
+ $W=2.8e-07	$X=55.21 $Y=41.25
Rc1288	GATEN#322	GATEN#3410	1.176071	$MET4	$L=4.45e-06
+ $W=2.8e-07	$X=55.21 $Y=39.81
Rc1289	GATEN#3411	GATEN#330	1.176071	$MET4	$L=4.45e-06
+ $W=2.8e-07	$X=55.21 $Y=38.09
Rc1298	GATEN#330	GATEN#3421	1.176071	$MET4	$L=4.45e-06
+ $W=2.8e-07	$X=55.21 $Y=36.65
Rc1300	GATEN#330	GATEN#3423	1.176071	$MET4	$L=4.45e-06
+ $W=2.8e-07	$X=55.21 $Y=35.21
Rc1302	GATEN#330	GATEN#3425	1.176071	$MET4	$L=4.45e-06
+ $W=2.8e-07	$X=55.21 $Y=33.77
Rc1303	GATEN#3426	GATEN#338	1.176071	$MET4	$L=4.45e-06
+ $W=2.8e-07	$X=55.21 $Y=32.05
Rc1312	GATEN#338	GATEN#3436	1.176071	$MET4	$L=4.45e-06
+ $W=2.8e-07	$X=55.21 $Y=30.61
Rc1314	GATEN#338	GATEN#3438	1.176071	$MET4	$L=4.45e-06
+ $W=2.8e-07	$X=55.21 $Y=29.17
Rc1316	GATEN#338	GATEN#3440	1.176071	$MET4	$L=4.45e-06
+ $W=2.8e-07	$X=55.21 $Y=27.73
Rc1317	GATEN#3441	GATEN#346	1.176071	$MET4	$L=4.45e-06
+ $W=2.8e-07	$X=55.21 $Y=26.01
Rc1326	GATEN#346	GATEN#3451	1.176071	$MET4	$L=4.45e-06
+ $W=2.8e-07	$X=55.21 $Y=24.57
Rc1328	GATEN#346	GATEN#3453	1.176071	$MET4	$L=4.45e-06
+ $W=2.8e-07	$X=55.21 $Y=23.13
Rc1330	GATEN#346	GATEN#3455	1.176071	$MET4	$L=4.45e-06
+ $W=2.8e-07	$X=55.21 $Y=21.69
Rc1331	GATEN#3456	GATEN#274	1.176071	$MET4	$L=4.45e-06
+ $W=2.8e-07	$X=55.21 $Y=19.97
Rc1340	GATEN#274	GATEN#3466	1.176071	$MET4	$L=4.45e-06
+ $W=2.8e-07	$X=55.21 $Y=18.53
Rc1342	GATEN#274	GATEN#3468	1.176071	$MET4	$L=4.45e-06
+ $W=2.8e-07	$X=55.21 $Y=17.09
Rc1344	GATEN#274	GATEN#3470	1.176071	$MET4	$L=4.45e-06
+ $W=2.8e-07	$X=55.21 $Y=15.65
Rc1345	OUT#14484	OUT#8634	1.176071	$MET4	$L=4.45e-06
+ $W=2.8e-07	$X=64.68 $Y=1.285
Rc1346	OUT#8634	OUT#8635	1.345183	$MET4	$L=5.24975e-06
+ $W=2.8e-07	$X=64.68 $Y=-5.7245
Rc1353	OUT#8635	OUT#3	1.345183	$MET4	$L=5.24975e-06
+ $W=2.8e-07	$X=63.24 $Y=-8.35
Rc1354	OUT#3	OUT#14494	1.176071	$MET4	$L=4.45e-06
+ $W=2.8e-07	$X=63.24 $Y=-0.875
Rc1355	OUT#8635	OUT#3	1.345183	$MET4	$L=5.24975e-06
+ $W=2.8e-07	$X=61.8 $Y=-8.35
Rc1356	OUT#3	OUT#14496	1.176071	$MET4	$L=4.45e-06
+ $W=2.8e-07	$X=61.8 $Y=-0.875
Rc1357	OUT#8635	OUT#3	1.345183	$MET4	$L=5.24975e-06
+ $W=2.8e-07	$X=60.36 $Y=-8.35
Rc1358	OUT#3	OUT#14498	1.176071	$MET4	$L=4.45e-06
+ $W=2.8e-07	$X=60.36 $Y=-0.875
Rc1359	OUT#14499	OUT#8652	1.176071	$MET4	$L=4.45e-06
+ $W=2.8e-07	$X=64.68 $Y=-10.415
Rc1360	OUT#8652	OUT#8653	1.345183	$MET4	$L=5.24975e-06
+ $W=2.8e-07	$X=64.68 $Y=-17.4245
Rc1367	OUT#8653	OUT#3	1.345183	$MET4	$L=5.24975e-06
+ $W=2.8e-07	$X=63.24 $Y=-20.05
Rc1368	OUT#3	OUT#14509	1.176071	$MET4	$L=4.45e-06
+ $W=2.8e-07	$X=63.24 $Y=-12.575
Rc1369	OUT#8653	OUT#3	1.345183	$MET4	$L=5.24975e-06
+ $W=2.8e-07	$X=61.8 $Y=-20.05
Rc1370	OUT#3	OUT#14511	1.176071	$MET4	$L=4.45e-06
+ $W=2.8e-07	$X=61.8 $Y=-12.575
Rc1371	OUT#8653	OUT#3	1.345183	$MET4	$L=5.24975e-06
+ $W=2.8e-07	$X=60.36 $Y=-20.05
Rc1372	OUT#3	OUT#14513	1.176071	$MET4	$L=4.45e-06
+ $W=2.8e-07	$X=60.36 $Y=-12.575
Rc1373	VDDHV#13989	VDDHV#177	1.176071	$MET4	$L=4.45e-06
+ $W=2.8e-07	$X=59.64 $Y=-7.485
Rc1378	VDDHV#177	VDDHV#13995	1.176071	$MET4	$L=4.45e-06
+ $W=2.8e-07	$X=61.08 $Y=-5.325
Rc1381	VDDHV#177	VDDHV#8291	1.345245	$MET4	$L=5.25025e-06
+ $W=2.8e-07	$X=62.52 $Y=2.15
Rc1382	VDDHV#8291	VDDHV#13999	1.176071	$MET4	$L=4.45e-06
+ $W=2.8e-07	$X=62.52 $Y=-5.325
Rc1385	VDDHV#177	VDDHV#14002	1.176071	$MET4	$L=4.45e-06
+ $W=2.8e-07	$X=63.96 $Y=-5.325
Rc1387	VDDHV#14004	VDDHV#177	1.176071	$MET4	$L=4.45e-06
+ $W=2.8e-07	$X=59.64 $Y=-19.185
Rc1392	VDDHV#177	VDDHV#14010	1.176071	$MET4	$L=4.45e-06
+ $W=2.8e-07	$X=61.08 $Y=-17.025
Rc1395	VDDHV#177	VDDHV#8309	1.345245	$MET4	$L=5.25025e-06
+ $W=2.8e-07	$X=62.52 $Y=-9.55
Rc1396	VDDHV#8309	VDDHV#14014	1.176071	$MET4	$L=4.45e-06
+ $W=2.8e-07	$X=62.52 $Y=-17.025
Rc1399	VDDHV#177	VDDHV#14017	1.176071	$MET4	$L=4.45e-06
+ $W=2.8e-07	$X=63.96 $Y=-17.025
Rc1401	OUT#14514	OUT#3	1.176071	$MET4	$L=4.45e-06
+ $W=2.8e-07	$X=70.72 $Y=1.285
Rc1402	OUT#3	OUT#8672	1.345183	$MET4	$L=5.24975e-06
+ $W=2.8e-07	$X=70.72 $Y=-5.7245
Rc1409	OUT#8672	OUT#3	1.345183	$MET4	$L=5.24975e-06
+ $W=2.8e-07	$X=69.28 $Y=-8.35
Rc1410	OUT#3	OUT#14524	1.176071	$MET4	$L=4.45e-06
+ $W=2.8e-07	$X=69.28 $Y=-0.875
Rc1411	OUT#8672	OUT#3	1.345183	$MET4	$L=5.24975e-06
+ $W=2.8e-07	$X=67.84 $Y=-8.35
Rc1412	OUT#3	OUT#14526	1.176071	$MET4	$L=4.45e-06
+ $W=2.8e-07	$X=67.84 $Y=-0.875
Rc1413	OUT#8672	OUT#3	1.345183	$MET4	$L=5.24975e-06
+ $W=2.8e-07	$X=66.4 $Y=-8.35
Rc1414	OUT#3	OUT#14528	1.176071	$MET4	$L=4.45e-06
+ $W=2.8e-07	$X=66.4 $Y=-0.875
Rc1415	OUT#14529	OUT#3	1.176071	$MET4	$L=4.45e-06
+ $W=2.8e-07	$X=70.72 $Y=-10.415
Rc1416	OUT#3	OUT#8691	1.345183	$MET4	$L=5.24975e-06
+ $W=2.8e-07	$X=70.72 $Y=-17.4245
Rc1423	OUT#8691	OUT#3	1.345183	$MET4	$L=5.24975e-06
+ $W=2.8e-07	$X=69.28 $Y=-20.05
Rc1424	OUT#3	OUT#14539	1.176071	$MET4	$L=4.45e-06
+ $W=2.8e-07	$X=69.28 $Y=-12.575
Rc1425	OUT#8691	OUT#3	1.345183	$MET4	$L=5.24975e-06
+ $W=2.8e-07	$X=67.84 $Y=-20.05
Rc1426	OUT#3	OUT#14541	1.176071	$MET4	$L=4.45e-06
+ $W=2.8e-07	$X=67.84 $Y=-12.575
Rc1427	OUT#8691	OUT#3	1.345183	$MET4	$L=5.24975e-06
+ $W=2.8e-07	$X=66.4 $Y=-20.05
Rc1428	OUT#3	OUT#14543	1.176071	$MET4	$L=4.45e-06
+ $W=2.8e-07	$X=66.4 $Y=-12.575
Rc1429	VDDHV#14019	VDDHV#177	1.176071	$MET4	$L=4.45e-06
+ $W=2.8e-07	$X=65.68 $Y=-7.485
Rc1434	VDDHV#177	VDDHV#14025	1.176071	$MET4	$L=4.45e-06
+ $W=2.8e-07	$X=67.12 $Y=-5.325
Rc1438	VDDHV#177	VDDHV#14029	1.176071	$MET4	$L=4.45e-06
+ $W=2.8e-07	$X=68.56 $Y=-5.325
Rc1441	VDDHV#177	VDDHV#14032	1.176071	$MET4	$L=4.45e-06
+ $W=2.8e-07	$X=70 $Y=-5.325
Rc1443	VDDHV#14034	VDDHV#177	1.176071	$MET4	$L=4.45e-06
+ $W=2.8e-07	$X=65.68 $Y=-19.185
Rc1448	VDDHV#177	VDDHV#14040	1.176071	$MET4	$L=4.45e-06
+ $W=2.8e-07	$X=67.12 $Y=-17.025
Rc1452	VDDHV#177	VDDHV#14044	1.176071	$MET4	$L=4.45e-06
+ $W=2.8e-07	$X=68.56 $Y=-17.025
Rc1455	VDDHV#177	VDDHV#14047	1.176071	$MET4	$L=4.45e-06
+ $W=2.8e-07	$X=70 $Y=-17.025
Rc1457	GNDHV#3449	GNDHV#523	1.176071	$MET4	$L=4.45e-06
+ $W=2.8e-07	$X=71.36 $Y=73.61
Rc1466	GNDHV#523	GNDHV#3459	1.176071	$MET4	$L=4.45e-06
+ $W=2.8e-07	$X=71.36 $Y=72.17
Rc1468	GNDHV#523	GNDHV#3461	1.176071	$MET4	$L=4.45e-06
+ $W=2.8e-07	$X=71.36 $Y=70.73
Rc1470	GNDHV#523	GNDHV#3463	1.176071	$MET4	$L=4.45e-06
+ $W=2.8e-07	$X=71.36 $Y=69.29
Rc1471	GNDHV#3464	GNDHV#525	1.176071	$MET4	$L=4.45e-06
+ $W=2.8e-07	$X=71.36 $Y=67.57
Rc1480	GNDHV#525	GNDHV#3474	1.176071	$MET4	$L=4.45e-06
+ $W=2.8e-07	$X=71.36 $Y=66.13
Rc1482	GNDHV#525	GNDHV#3476	1.176071	$MET4	$L=4.45e-06
+ $W=2.8e-07	$X=71.36 $Y=64.69
Rc1484	GNDHV#525	GNDHV#3478	1.176071	$MET4	$L=4.45e-06
+ $W=2.8e-07	$X=71.36 $Y=63.25
Rc1485	GNDHV#3479	GNDHV#527	1.176071	$MET4	$L=4.45e-06
+ $W=2.8e-07	$X=71.36 $Y=61.53
Rc1494	GNDHV#527	GNDHV#3489	1.176071	$MET4	$L=4.45e-06
+ $W=2.8e-07	$X=71.36 $Y=60.09
Rc1496	GNDHV#527	GNDHV#3491	1.176071	$MET4	$L=4.45e-06
+ $W=2.8e-07	$X=71.36 $Y=58.65
Rc1498	GNDHV#527	GNDHV#3493	1.176071	$MET4	$L=4.45e-06
+ $W=2.8e-07	$X=71.36 $Y=57.21
Rc1499	GNDHV#3494	GNDHV#529	1.176071	$MET4	$L=4.45e-06
+ $W=2.8e-07	$X=71.36 $Y=55.49
Rc1508	GNDHV#529	GNDHV#3504	1.176071	$MET4	$L=4.45e-06
+ $W=2.8e-07	$X=71.36 $Y=54.05
Rc1510	GNDHV#529	GNDHV#3506	1.176071	$MET4	$L=4.45e-06
+ $W=2.8e-07	$X=71.36 $Y=52.61
Rc1512	GNDHV#529	GNDHV#3508	1.176071	$MET4	$L=4.45e-06
+ $W=2.8e-07	$X=71.36 $Y=51.17
Rc1513	GNDHV#3509	GNDHV#531	1.176071	$MET4	$L=4.45e-06
+ $W=2.8e-07	$X=71.36 $Y=49.45
Rc1522	GNDHV#531	GNDHV#3519	1.176071	$MET4	$L=4.45e-06
+ $W=2.8e-07	$X=71.36 $Y=48.01
Rc1524	GNDHV#531	GNDHV#3521	1.176071	$MET4	$L=4.45e-06
+ $W=2.8e-07	$X=71.36 $Y=46.57
Rc1526	GNDHV#531	GNDHV#3523	1.176071	$MET4	$L=4.45e-06
+ $W=2.8e-07	$X=71.36 $Y=45.13
Rc1527	GNDHV#3524	GNDHV#533	1.176071	$MET4	$L=4.45e-06
+ $W=2.8e-07	$X=71.36 $Y=43.41
Rc1536	GNDHV#533	GNDHV#3534	1.176071	$MET4	$L=4.45e-06
+ $W=2.8e-07	$X=71.36 $Y=41.97
Rc1538	GNDHV#533	GNDHV#3536	1.176071	$MET4	$L=4.45e-06
+ $W=2.8e-07	$X=71.36 $Y=40.53
Rc1540	GNDHV#533	GNDHV#3538	1.176071	$MET4	$L=4.45e-06
+ $W=2.8e-07	$X=71.36 $Y=39.09
Rc1541	GNDHV#3539	GNDHV#535	1.176071	$MET4	$L=4.45e-06
+ $W=2.8e-07	$X=71.36 $Y=37.37
Rc1550	GNDHV#535	GNDHV#3549	1.176071	$MET4	$L=4.45e-06
+ $W=2.8e-07	$X=71.36 $Y=35.93
Rc1552	GNDHV#535	GNDHV#3551	1.176071	$MET4	$L=4.45e-06
+ $W=2.8e-07	$X=71.36 $Y=34.49
Rc1554	GNDHV#535	GNDHV#3553	1.176071	$MET4	$L=4.45e-06
+ $W=2.8e-07	$X=71.36 $Y=33.05
Rc1555	GNDHV#3554	GNDHV#537	1.176071	$MET4	$L=4.45e-06
+ $W=2.8e-07	$X=71.36 $Y=31.33
Rc1564	GNDHV#537	GNDHV#3564	1.176071	$MET4	$L=4.45e-06
+ $W=2.8e-07	$X=71.36 $Y=29.89
Rc1566	GNDHV#537	GNDHV#3566	1.176071	$MET4	$L=4.45e-06
+ $W=2.8e-07	$X=71.36 $Y=28.45
Rc1568	GNDHV#537	GNDHV#3568	1.176071	$MET4	$L=4.45e-06
+ $W=2.8e-07	$X=71.36 $Y=27.01
Rc1569	GNDHV#3569	GNDHV#539	1.176071	$MET4	$L=4.45e-06
+ $W=2.8e-07	$X=71.36 $Y=25.29
Rc1578	GNDHV#539	GNDHV#3579	1.176071	$MET4	$L=4.45e-06
+ $W=2.8e-07	$X=71.36 $Y=23.85
Rc1580	GNDHV#539	GNDHV#3581	1.176071	$MET4	$L=4.45e-06
+ $W=2.8e-07	$X=71.36 $Y=22.41
Rc1582	GNDHV#539	GNDHV#3583	1.176071	$MET4	$L=4.45e-06
+ $W=2.8e-07	$X=71.36 $Y=20.97
Rc1583	GNDHV#3584	GNDHV#204	1.176071	$MET4	$L=4.45e-06
+ $W=2.8e-07	$X=71.36 $Y=19.25
Rc1592	GNDHV#204	GNDHV#3594	1.176071	$MET4	$L=4.45e-06
+ $W=2.8e-07	$X=71.36 $Y=17.81
Rc1594	GNDHV#204	GNDHV#3596	1.176071	$MET4	$L=4.45e-06
+ $W=2.8e-07	$X=71.36 $Y=16.37
Rc1596	GNDHV#204	GNDHV#3598	1.176071	$MET4	$L=4.45e-06
+ $W=2.8e-07	$X=71.36 $Y=14.93
Rc1597	GATEN#3471	GATEN#202	1.176071	$MET4	$L=4.45e-06
+ $W=2.8e-07	$X=66.91 $Y=74.33
Rc1606	GATEN#202	GATEN#3481	1.176071	$MET4	$L=4.45e-06
+ $W=2.8e-07	$X=66.91 $Y=72.89
Rc1608	GATEN#202	GATEN#3483	1.176071	$MET4	$L=4.45e-06
+ $W=2.8e-07	$X=66.91 $Y=71.45
Rc1610	GATEN#202	GATEN#3485	1.176071	$MET4	$L=4.45e-06
+ $W=2.8e-07	$X=66.91 $Y=70.01
Rc1611	GATEN#3486	GATEN#403	1.176071	$MET4	$L=4.45e-06
+ $W=2.8e-07	$X=66.91 $Y=68.29
Rc1620	GATEN#403	GATEN#3496	1.176071	$MET4	$L=4.45e-06
+ $W=2.8e-07	$X=66.91 $Y=66.85
Rc1622	GATEN#403	GATEN#3498	1.176071	$MET4	$L=4.45e-06
+ $W=2.8e-07	$X=66.91 $Y=65.41
Rc1624	GATEN#403	GATEN#3500	1.176071	$MET4	$L=4.45e-06
+ $W=2.8e-07	$X=66.91 $Y=63.97
Rc1625	GATEN#3501	GATEN#411	1.176071	$MET4	$L=4.45e-06
+ $W=2.8e-07	$X=66.91 $Y=62.25
Rc1634	GATEN#411	GATEN#3511	1.176071	$MET4	$L=4.45e-06
+ $W=2.8e-07	$X=66.91 $Y=60.81
Rc1636	GATEN#411	GATEN#3513	1.176071	$MET4	$L=4.45e-06
+ $W=2.8e-07	$X=66.91 $Y=59.37
Rc1638	GATEN#411	GATEN#3515	1.176071	$MET4	$L=4.45e-06
+ $W=2.8e-07	$X=66.91 $Y=57.93
Rc1639	GATEN#3516	GATEN#419	1.176071	$MET4	$L=4.45e-06
+ $W=2.8e-07	$X=66.91 $Y=56.21
Rc1648	GATEN#419	GATEN#3526	1.176071	$MET4	$L=4.45e-06
+ $W=2.8e-07	$X=66.91 $Y=54.77
Rc1650	GATEN#419	GATEN#3528	1.176071	$MET4	$L=4.45e-06
+ $W=2.8e-07	$X=66.91 $Y=53.33
Rc1652	GATEN#419	GATEN#3530	1.176071	$MET4	$L=4.45e-06
+ $W=2.8e-07	$X=66.91 $Y=51.89
Rc1653	GATEN#3531	GATEN#427	1.176071	$MET4	$L=4.45e-06
+ $W=2.8e-07	$X=66.91 $Y=50.17
Rc1662	GATEN#427	GATEN#3541	1.176071	$MET4	$L=4.45e-06
+ $W=2.8e-07	$X=66.91 $Y=48.73
Rc1664	GATEN#427	GATEN#3543	1.176071	$MET4	$L=4.45e-06
+ $W=2.8e-07	$X=66.91 $Y=47.29
Rc1666	GATEN#427	GATEN#3545	1.176071	$MET4	$L=4.45e-06
+ $W=2.8e-07	$X=66.91 $Y=45.85
Rc1667	GATEN#3546	GATEN#435	1.176071	$MET4	$L=4.45e-06
+ $W=2.8e-07	$X=66.91 $Y=44.13
Rc1676	GATEN#435	GATEN#3556	1.176071	$MET4	$L=4.45e-06
+ $W=2.8e-07	$X=66.91 $Y=42.69
Rc1678	GATEN#435	GATEN#3558	1.176071	$MET4	$L=4.45e-06
+ $W=2.8e-07	$X=66.91 $Y=41.25
Rc1680	GATEN#435	GATEN#3560	1.176071	$MET4	$L=4.45e-06
+ $W=2.8e-07	$X=66.91 $Y=39.81
Rc1681	GATEN#3561	GATEN#443	1.176071	$MET4	$L=4.45e-06
+ $W=2.8e-07	$X=66.91 $Y=38.09
Rc1690	GATEN#443	GATEN#3571	1.176071	$MET4	$L=4.45e-06
+ $W=2.8e-07	$X=66.91 $Y=36.65
Rc1692	GATEN#443	GATEN#3573	1.176071	$MET4	$L=4.45e-06
+ $W=2.8e-07	$X=66.91 $Y=35.21
Rc1694	GATEN#443	GATEN#3575	1.176071	$MET4	$L=4.45e-06
+ $W=2.8e-07	$X=66.91 $Y=33.77
Rc1695	GATEN#3576	GATEN#451	1.176071	$MET4	$L=4.45e-06
+ $W=2.8e-07	$X=66.91 $Y=32.05
Rc1704	GATEN#451	GATEN#3586	1.176071	$MET4	$L=4.45e-06
+ $W=2.8e-07	$X=66.91 $Y=30.61
Rc1706	GATEN#451	GATEN#3588	1.176071	$MET4	$L=4.45e-06
+ $W=2.8e-07	$X=66.91 $Y=29.17
Rc1708	GATEN#451	GATEN#3590	1.176071	$MET4	$L=4.45e-06
+ $W=2.8e-07	$X=66.91 $Y=27.73
Rc1709	GATEN#3591	GATEN#459	1.176071	$MET4	$L=4.45e-06
+ $W=2.8e-07	$X=66.91 $Y=26.01
Rc1718	GATEN#459	GATEN#3601	1.176071	$MET4	$L=4.45e-06
+ $W=2.8e-07	$X=66.91 $Y=24.57
Rc1720	GATEN#459	GATEN#3603	1.176071	$MET4	$L=4.45e-06
+ $W=2.8e-07	$X=66.91 $Y=23.13
Rc1722	GATEN#459	GATEN#3605	1.176071	$MET4	$L=4.45e-06
+ $W=2.8e-07	$X=66.91 $Y=21.69
Rc1723	GATEN#3606	GATEN#274	1.176071	$MET4	$L=4.45e-06
+ $W=2.8e-07	$X=66.91 $Y=19.97
Rc1732	GATEN#274	GATEN#3616	1.176071	$MET4	$L=4.45e-06
+ $W=2.8e-07	$X=66.91 $Y=18.53
Rc1734	GATEN#274	GATEN#3618	1.176071	$MET4	$L=4.45e-06
+ $W=2.8e-07	$X=66.91 $Y=17.09
Rc1736	GATEN#274	GATEN#3620	1.176071	$MET4	$L=4.45e-06
+ $W=2.8e-07	$X=66.91 $Y=15.65
Rc1737	OUT#14544	OUT#3	1.176071	$MET4	$L=4.45e-06
+ $W=2.8e-07	$X=76.76 $Y=1.285
Rc1738	OUT#3	OUT#8710	1.345183	$MET4	$L=5.24975e-06
+ $W=2.8e-07	$X=76.76 $Y=-5.7245
Rc1745	OUT#8710	OUT#8717	1.345183	$MET4	$L=5.24975e-06
+ $W=2.8e-07	$X=75.32 $Y=-8.35
Rc1746	OUT#8717	OUT#14554	1.176071	$MET4	$L=4.45e-06
+ $W=2.8e-07	$X=75.32 $Y=-0.875
Rc1747	OUT#8710	OUT#3	1.345183	$MET4	$L=5.24975e-06
+ $W=2.8e-07	$X=73.88 $Y=-8.35
Rc1748	OUT#3	OUT#14556	1.176071	$MET4	$L=4.45e-06
+ $W=2.8e-07	$X=73.88 $Y=-0.875
Rc1749	OUT#8710	OUT#3	1.345183	$MET4	$L=5.24975e-06
+ $W=2.8e-07	$X=72.44 $Y=-8.35
Rc1750	OUT#3	OUT#14558	1.176071	$MET4	$L=4.45e-06
+ $W=2.8e-07	$X=72.44 $Y=-0.875
Rc1751	OUT#14559	OUT#3	1.176071	$MET4	$L=4.45e-06
+ $W=2.8e-07	$X=76.76 $Y=-10.415
Rc1752	OUT#3	OUT#8728	1.345183	$MET4	$L=5.24975e-06
+ $W=2.8e-07	$X=76.76 $Y=-17.4245
Rc1759	OUT#8728	OUT#8735	1.345183	$MET4	$L=5.24975e-06
+ $W=2.8e-07	$X=75.32 $Y=-20.05
Rc1760	OUT#8735	OUT#14569	1.176071	$MET4	$L=4.45e-06
+ $W=2.8e-07	$X=75.32 $Y=-12.575
Rc1761	OUT#8728	OUT#3	1.345183	$MET4	$L=5.24975e-06
+ $W=2.8e-07	$X=73.88 $Y=-20.05
Rc1762	OUT#3	OUT#14571	1.176071	$MET4	$L=4.45e-06
+ $W=2.8e-07	$X=73.88 $Y=-12.575
Rc1763	OUT#8728	OUT#3	1.345183	$MET4	$L=5.24975e-06
+ $W=2.8e-07	$X=72.44 $Y=-20.05
Rc1764	OUT#3	OUT#14573	1.176071	$MET4	$L=4.45e-06
+ $W=2.8e-07	$X=72.44 $Y=-12.575
Rc1765	VDDHV#14049	VDDHV#177	1.176071	$MET4	$L=4.45e-06
+ $W=2.8e-07	$X=71.72 $Y=-7.485
Rc1770	VDDHV#177	VDDHV#14055	1.176071	$MET4	$L=4.45e-06
+ $W=2.8e-07	$X=73.16 $Y=-5.325
Rc1774	VDDHV#177	VDDHV#14059	1.176071	$MET4	$L=4.45e-06
+ $W=2.8e-07	$X=74.6 $Y=-5.325
Rc1777	VDDHV#177	VDDHV#14062	1.176071	$MET4	$L=4.45e-06
+ $W=2.8e-07	$X=76.04 $Y=-5.325
Rc1779	VDDHV#14064	VDDHV#177	1.176071	$MET4	$L=4.45e-06
+ $W=2.8e-07	$X=71.72 $Y=-19.185
Rc1784	VDDHV#177	VDDHV#14070	1.176071	$MET4	$L=4.45e-06
+ $W=2.8e-07	$X=73.16 $Y=-17.025
Rc1788	VDDHV#177	VDDHV#14074	1.176071	$MET4	$L=4.45e-06
+ $W=2.8e-07	$X=74.6 $Y=-17.025
Rc1791	VDDHV#177	VDDHV#14077	1.176071	$MET4	$L=4.45e-06
+ $W=2.8e-07	$X=76.04 $Y=-17.025
Rc1793	OUT#14574	OUT#3	1.176071	$MET4	$L=4.45e-06
+ $W=2.8e-07	$X=82.8 $Y=1.285
Rc1794	OUT#3	OUT#8746	1.345183	$MET4	$L=5.24975e-06
+ $W=2.8e-07	$X=82.8 $Y=-5.7245
Rc1801	OUT#8746	OUT#3	1.345183	$MET4	$L=5.24975e-06
+ $W=2.8e-07	$X=81.36 $Y=-8.35
Rc1802	OUT#3	OUT#14584	1.176071	$MET4	$L=4.45e-06
+ $W=2.8e-07	$X=81.36 $Y=-0.875
Rc1803	OUT#8746	OUT#3	1.345183	$MET4	$L=5.24975e-06
+ $W=2.8e-07	$X=79.92 $Y=-8.35
Rc1804	OUT#3	OUT#14586	1.176071	$MET4	$L=4.45e-06
+ $W=2.8e-07	$X=79.92 $Y=-0.875
Rc1805	OUT#8746	OUT#3	1.345183	$MET4	$L=5.24975e-06
+ $W=2.8e-07	$X=78.48 $Y=-8.35
Rc1806	OUT#3	OUT#14588	1.176071	$MET4	$L=4.45e-06
+ $W=2.8e-07	$X=78.48 $Y=-0.875
Rc1807	OUT#14589	OUT#3	1.176071	$MET4	$L=4.45e-06
+ $W=2.8e-07	$X=82.8 $Y=-10.415
Rc1808	OUT#3	OUT#8765	1.345183	$MET4	$L=5.24975e-06
+ $W=2.8e-07	$X=82.8 $Y=-17.4245
Rc1815	OUT#8765	OUT#3	1.345183	$MET4	$L=5.24975e-06
+ $W=2.8e-07	$X=81.36 $Y=-20.05
Rc1816	OUT#3	OUT#14599	1.176071	$MET4	$L=4.45e-06
+ $W=2.8e-07	$X=81.36 $Y=-12.575
Rc1817	OUT#8765	OUT#3	1.345183	$MET4	$L=5.24975e-06
+ $W=2.8e-07	$X=79.92 $Y=-20.05
Rc1818	OUT#3	OUT#14601	1.176071	$MET4	$L=4.45e-06
+ $W=2.8e-07	$X=79.92 $Y=-12.575
Rc1819	OUT#8765	OUT#3	1.345183	$MET4	$L=5.24975e-06
+ $W=2.8e-07	$X=78.48 $Y=-20.05
Rc1820	OUT#3	OUT#14603	1.176071	$MET4	$L=4.45e-06
+ $W=2.8e-07	$X=78.48 $Y=-12.575
Rc1821	VDDHV#14079	VDDHV#177	1.176071	$MET4	$L=4.45e-06
+ $W=2.8e-07	$X=77.76 $Y=-7.485
Rc1826	VDDHV#177	VDDHV#14085	1.176071	$MET4	$L=4.45e-06
+ $W=2.8e-07	$X=79.2 $Y=-5.325
Rc1830	VDDHV#177	VDDHV#14089	1.176071	$MET4	$L=4.45e-06
+ $W=2.8e-07	$X=80.64 $Y=-5.325
Rc1833	VDDHV#177	VDDHV#14092	1.176071	$MET4	$L=4.45e-06
+ $W=2.8e-07	$X=82.08 $Y=-5.325
Rc1835	VDDHV#14094	VDDHV#177	1.176071	$MET4	$L=4.45e-06
+ $W=2.8e-07	$X=77.76 $Y=-19.185
Rc1840	VDDHV#177	VDDHV#14100	1.176071	$MET4	$L=4.45e-06
+ $W=2.8e-07	$X=79.2 $Y=-17.025
Rc1844	VDDHV#177	VDDHV#14104	1.176071	$MET4	$L=4.45e-06
+ $W=2.8e-07	$X=80.64 $Y=-17.025
Rc1847	VDDHV#177	VDDHV#14107	1.176071	$MET4	$L=4.45e-06
+ $W=2.8e-07	$X=82.08 $Y=-17.025
Rc1849	GNDHV#3599	GNDHV#184	1.176071	$MET4	$L=4.45e-06
+ $W=2.8e-07	$X=83.06 $Y=73.61
Rc1858	GNDHV#184	GNDHV#3609	1.176071	$MET4	$L=4.45e-06
+ $W=2.8e-07	$X=83.06 $Y=72.17
Rc1860	GNDHV#184	GNDHV#3611	1.176071	$MET4	$L=4.45e-06
+ $W=2.8e-07	$X=83.06 $Y=70.73
Rc1862	GNDHV#184	GNDHV#3613	1.176071	$MET4	$L=4.45e-06
+ $W=2.8e-07	$X=83.06 $Y=69.29
Rc1863	GNDHV#3614	GNDHV#186	1.176071	$MET4	$L=4.45e-06
+ $W=2.8e-07	$X=83.06 $Y=67.57
Rc1872	GNDHV#186	GNDHV#3624	1.176071	$MET4	$L=4.45e-06
+ $W=2.8e-07	$X=83.06 $Y=66.13
Rc1874	GNDHV#186	GNDHV#3626	1.176071	$MET4	$L=4.45e-06
+ $W=2.8e-07	$X=83.06 $Y=64.69
Rc1876	GNDHV#186	GNDHV#3628	1.176071	$MET4	$L=4.45e-06
+ $W=2.8e-07	$X=83.06 $Y=63.25
Rc1877	GNDHV#3629	GNDHV#188	1.176071	$MET4	$L=4.45e-06
+ $W=2.8e-07	$X=83.06 $Y=61.53
Rc1886	GNDHV#188	GNDHV#3639	1.176071	$MET4	$L=4.45e-06
+ $W=2.8e-07	$X=83.06 $Y=60.09
Rc1888	GNDHV#188	GNDHV#3641	1.176071	$MET4	$L=4.45e-06
+ $W=2.8e-07	$X=83.06 $Y=58.65
Rc1890	GNDHV#188	GNDHV#3643	1.176071	$MET4	$L=4.45e-06
+ $W=2.8e-07	$X=83.06 $Y=57.21
Rc1891	GNDHV#3644	GNDHV#190	1.176071	$MET4	$L=4.45e-06
+ $W=2.8e-07	$X=83.06 $Y=55.49
Rc1900	GNDHV#190	GNDHV#3654	1.176071	$MET4	$L=4.45e-06
+ $W=2.8e-07	$X=83.06 $Y=54.05
Rc1902	GNDHV#190	GNDHV#3656	1.176071	$MET4	$L=4.45e-06
+ $W=2.8e-07	$X=83.06 $Y=52.61
Rc1904	GNDHV#190	GNDHV#3658	1.176071	$MET4	$L=4.45e-06
+ $W=2.8e-07	$X=83.06 $Y=51.17
Rc1905	GNDHV#3659	GNDHV#192	1.176071	$MET4	$L=4.45e-06
+ $W=2.8e-07	$X=83.06 $Y=49.45
Rc1914	GNDHV#192	GNDHV#3669	1.176071	$MET4	$L=4.45e-06
+ $W=2.8e-07	$X=83.06 $Y=48.01
Rc1916	GNDHV#192	GNDHV#3671	1.176071	$MET4	$L=4.45e-06
+ $W=2.8e-07	$X=83.06 $Y=46.57
Rc1918	GNDHV#192	GNDHV#3673	1.176071	$MET4	$L=4.45e-06
+ $W=2.8e-07	$X=83.06 $Y=45.13
Rc1919	GNDHV#3674	GNDHV#194	1.176071	$MET4	$L=4.45e-06
+ $W=2.8e-07	$X=83.06 $Y=43.41
Rc1928	GNDHV#194	GNDHV#3684	1.176071	$MET4	$L=4.45e-06
+ $W=2.8e-07	$X=83.06 $Y=41.97
Rc1930	GNDHV#194	GNDHV#3686	1.176071	$MET4	$L=4.45e-06
+ $W=2.8e-07	$X=83.06 $Y=40.53
Rc1932	GNDHV#194	GNDHV#3688	1.176071	$MET4	$L=4.45e-06
+ $W=2.8e-07	$X=83.06 $Y=39.09
Rc1933	GNDHV#3689	GNDHV#196	1.176071	$MET4	$L=4.45e-06
+ $W=2.8e-07	$X=83.06 $Y=37.37
Rc1942	GNDHV#196	GNDHV#3699	1.176071	$MET4	$L=4.45e-06
+ $W=2.8e-07	$X=83.06 $Y=35.93
Rc1944	GNDHV#196	GNDHV#3701	1.176071	$MET4	$L=4.45e-06
+ $W=2.8e-07	$X=83.06 $Y=34.49
Rc1946	GNDHV#196	GNDHV#3703	1.176071	$MET4	$L=4.45e-06
+ $W=2.8e-07	$X=83.06 $Y=33.05
Rc1947	GNDHV#3704	GNDHV#198	1.176071	$MET4	$L=4.45e-06
+ $W=2.8e-07	$X=83.06 $Y=31.33
Rc1956	GNDHV#198	GNDHV#3714	1.176071	$MET4	$L=4.45e-06
+ $W=2.8e-07	$X=83.06 $Y=29.89
Rc1958	GNDHV#198	GNDHV#3716	1.176071	$MET4	$L=4.45e-06
+ $W=2.8e-07	$X=83.06 $Y=28.45
Rc1960	GNDHV#198	GNDHV#3718	1.176071	$MET4	$L=4.45e-06
+ $W=2.8e-07	$X=83.06 $Y=27.01
Rc1961	GNDHV#3719	GNDHV#200	1.176071	$MET4	$L=4.45e-06
+ $W=2.8e-07	$X=83.06 $Y=25.29
Rc1970	GNDHV#200	GNDHV#3729	1.176071	$MET4	$L=4.45e-06
+ $W=2.8e-07	$X=83.06 $Y=23.85
Rc1972	GNDHV#200	GNDHV#3731	1.176071	$MET4	$L=4.45e-06
+ $W=2.8e-07	$X=83.06 $Y=22.41
Rc1974	GNDHV#200	GNDHV#3733	1.176071	$MET4	$L=4.45e-06
+ $W=2.8e-07	$X=83.06 $Y=20.97
Rc1975	GNDHV#3734	GNDHV#202	1.176071	$MET4	$L=4.45e-06
+ $W=2.8e-07	$X=83.06 $Y=19.25
Rc1984	GNDHV#202	GNDHV#3744	1.176071	$MET4	$L=4.45e-06
+ $W=2.8e-07	$X=83.06 $Y=17.81
Rc1986	GNDHV#202	GNDHV#3746	1.176071	$MET4	$L=4.45e-06
+ $W=2.8e-07	$X=83.06 $Y=16.37
Rc1988	GNDHV#202	GNDHV#3748	1.176071	$MET4	$L=4.45e-06
+ $W=2.8e-07	$X=83.06 $Y=14.93
Rc1989	GATEN#3621	GATEN#202	1.176071	$MET4	$L=4.45e-06
+ $W=2.8e-07	$X=78.61 $Y=74.33
Rc1998	GATEN#202	GATEN#3631	1.176071	$MET4	$L=4.45e-06
+ $W=2.8e-07	$X=78.61 $Y=72.89
Rc2000	GATEN#202	GATEN#3633	1.176071	$MET4	$L=4.45e-06
+ $W=2.8e-07	$X=78.61 $Y=71.45
Rc2002	GATEN#202	GATEN#3635	1.176071	$MET4	$L=4.45e-06
+ $W=2.8e-07	$X=78.61 $Y=70.01
Rc2003	GATEN#3636	GATEN#483	1.176071	$MET4	$L=4.45e-06
+ $W=2.8e-07	$X=78.61 $Y=68.29
Rc2012	GATEN#483	GATEN#3646	1.176071	$MET4	$L=4.45e-06
+ $W=2.8e-07	$X=78.61 $Y=66.85
Rc2014	GATEN#483	GATEN#3648	1.176071	$MET4	$L=4.45e-06
+ $W=2.8e-07	$X=78.61 $Y=65.41
Rc2016	GATEN#483	GATEN#3650	1.176071	$MET4	$L=4.45e-06
+ $W=2.8e-07	$X=78.61 $Y=63.97
Rc2017	GATEN#3651	GATEN#491	1.176071	$MET4	$L=4.45e-06
+ $W=2.8e-07	$X=78.61 $Y=62.25
Rc2026	GATEN#491	GATEN#3661	1.176071	$MET4	$L=4.45e-06
+ $W=2.8e-07	$X=78.61 $Y=60.81
Rc2028	GATEN#491	GATEN#3663	1.176071	$MET4	$L=4.45e-06
+ $W=2.8e-07	$X=78.61 $Y=59.37
Rc2030	GATEN#491	GATEN#3665	1.176071	$MET4	$L=4.45e-06
+ $W=2.8e-07	$X=78.61 $Y=57.93
Rc2031	GATEN#3666	GATEN#499	1.176071	$MET4	$L=4.45e-06
+ $W=2.8e-07	$X=78.61 $Y=56.21
Rc2040	GATEN#499	GATEN#3676	1.176071	$MET4	$L=4.45e-06
+ $W=2.8e-07	$X=78.61 $Y=54.77
Rc2042	GATEN#499	GATEN#3678	1.176071	$MET4	$L=4.45e-06
+ $W=2.8e-07	$X=78.61 $Y=53.33
Rc2044	GATEN#499	GATEN#3680	1.176071	$MET4	$L=4.45e-06
+ $W=2.8e-07	$X=78.61 $Y=51.89
Rc2045	GATEN#3681	GATEN#507	1.176071	$MET4	$L=4.45e-06
+ $W=2.8e-07	$X=78.61 $Y=50.17
Rc2054	GATEN#507	GATEN#3691	1.176071	$MET4	$L=4.45e-06
+ $W=2.8e-07	$X=78.61 $Y=48.73
Rc2056	GATEN#507	GATEN#3693	1.176071	$MET4	$L=4.45e-06
+ $W=2.8e-07	$X=78.61 $Y=47.29
Rc2058	GATEN#507	GATEN#3695	1.176071	$MET4	$L=4.45e-06
+ $W=2.8e-07	$X=78.61 $Y=45.85
Rc2059	GATEN#3696	GATEN#515	1.176071	$MET4	$L=4.45e-06
+ $W=2.8e-07	$X=78.61 $Y=44.13
Rc2068	GATEN#515	GATEN#3706	1.176071	$MET4	$L=4.45e-06
+ $W=2.8e-07	$X=78.61 $Y=42.69
Rc2070	GATEN#515	GATEN#3708	1.176071	$MET4	$L=4.45e-06
+ $W=2.8e-07	$X=78.61 $Y=41.25
Rc2072	GATEN#515	GATEN#3710	1.176071	$MET4	$L=4.45e-06
+ $W=2.8e-07	$X=78.61 $Y=39.81
Rc2073	GATEN#3711	GATEN#523	1.176071	$MET4	$L=4.45e-06
+ $W=2.8e-07	$X=78.61 $Y=38.09
Rc2082	GATEN#523	GATEN#3721	1.176071	$MET4	$L=4.45e-06
+ $W=2.8e-07	$X=78.61 $Y=36.65
Rc2084	GATEN#523	GATEN#3723	1.176071	$MET4	$L=4.45e-06
+ $W=2.8e-07	$X=78.61 $Y=35.21
Rc2086	GATEN#523	GATEN#3725	1.176071	$MET4	$L=4.45e-06
+ $W=2.8e-07	$X=78.61 $Y=33.77
Rc2087	GATEN#3726	GATEN#531	1.176071	$MET4	$L=4.45e-06
+ $W=2.8e-07	$X=78.61 $Y=32.05
Rc2096	GATEN#531	GATEN#3736	1.176071	$MET4	$L=4.45e-06
+ $W=2.8e-07	$X=78.61 $Y=30.61
Rc2098	GATEN#531	GATEN#3738	1.176071	$MET4	$L=4.45e-06
+ $W=2.8e-07	$X=78.61 $Y=29.17
Rc2100	GATEN#531	GATEN#3740	1.176071	$MET4	$L=4.45e-06
+ $W=2.8e-07	$X=78.61 $Y=27.73
Rc2101	GATEN#3741	GATEN#539	1.176071	$MET4	$L=4.45e-06
+ $W=2.8e-07	$X=78.61 $Y=26.01
Rc2110	GATEN#539	GATEN#3751	1.176071	$MET4	$L=4.45e-06
+ $W=2.8e-07	$X=78.61 $Y=24.57
Rc2112	GATEN#539	GATEN#3753	1.176071	$MET4	$L=4.45e-06
+ $W=2.8e-07	$X=78.61 $Y=23.13
Rc2114	GATEN#539	GATEN#3755	1.176071	$MET4	$L=4.45e-06
+ $W=2.8e-07	$X=78.61 $Y=21.69
Rc2115	GATEN#3756	GATEN#274	1.176071	$MET4	$L=4.45e-06
+ $W=2.8e-07	$X=78.61 $Y=19.97
Rc2124	GATEN#274	GATEN#3766	1.176071	$MET4	$L=4.45e-06
+ $W=2.8e-07	$X=78.61 $Y=18.53
Rc2126	GATEN#274	GATEN#3768	1.176071	$MET4	$L=4.45e-06
+ $W=2.8e-07	$X=78.61 $Y=17.09
Rc2128	GATEN#274	GATEN#3770	1.176071	$MET4	$L=4.45e-06
+ $W=2.8e-07	$X=78.61 $Y=15.65
Rc2129	OUT#14604	OUT#3	1.176071	$MET4	$L=4.45e-06
+ $W=2.8e-07	$X=88.84 $Y=1.285
Rc2130	OUT#3	OUT#8784	1.345183	$MET4	$L=5.24975e-06
+ $W=2.8e-07	$X=88.84 $Y=-5.7245
Rc2137	OUT#8784	OUT#3	1.345183	$MET4	$L=5.24975e-06
+ $W=2.8e-07	$X=87.4 $Y=-8.35
Rc2138	OUT#3	OUT#14614	1.176071	$MET4	$L=4.45e-06
+ $W=2.8e-07	$X=87.4 $Y=-0.875
Rc2139	OUT#8784	OUT#8794	1.345183	$MET4	$L=5.24975e-06
+ $W=2.8e-07	$X=85.96 $Y=-8.35
Rc2140	OUT#8794	OUT#14616	1.176071	$MET4	$L=4.45e-06
+ $W=2.8e-07	$X=85.96 $Y=-0.875
Rc2141	OUT#8784	OUT#3	1.345183	$MET4	$L=5.24975e-06
+ $W=2.8e-07	$X=84.52 $Y=-8.35
Rc2142	OUT#3	OUT#14618	1.176071	$MET4	$L=4.45e-06
+ $W=2.8e-07	$X=84.52 $Y=-0.875
Rc2143	OUT#14619	OUT#3	1.176071	$MET4	$L=4.45e-06
+ $W=2.8e-07	$X=88.84 $Y=-10.415
Rc2144	OUT#3	OUT#8802	1.345183	$MET4	$L=5.24975e-06
+ $W=2.8e-07	$X=88.84 $Y=-17.4245
Rc2151	OUT#8802	OUT#3	1.345183	$MET4	$L=5.24975e-06
+ $W=2.8e-07	$X=87.4 $Y=-20.05
Rc2152	OUT#3	OUT#14629	1.176071	$MET4	$L=4.45e-06
+ $W=2.8e-07	$X=87.4 $Y=-12.575
Rc2153	OUT#8802	OUT#8812	1.345183	$MET4	$L=5.24975e-06
+ $W=2.8e-07	$X=85.96 $Y=-20.05
Rc2154	OUT#8812	OUT#14631	1.176071	$MET4	$L=4.45e-06
+ $W=2.8e-07	$X=85.96 $Y=-12.575
Rc2155	OUT#8802	OUT#3	1.345183	$MET4	$L=5.24975e-06
+ $W=2.8e-07	$X=84.52 $Y=-20.05
Rc2156	OUT#3	OUT#14633	1.176071	$MET4	$L=4.45e-06
+ $W=2.8e-07	$X=84.52 $Y=-12.575
Rc2157	VDDHV#14109	VDDHV#177	1.176071	$MET4	$L=4.45e-06
+ $W=2.8e-07	$X=83.8 $Y=-7.485
Rc2162	VDDHV#177	VDDHV#14115	1.176071	$MET4	$L=4.45e-06
+ $W=2.8e-07	$X=85.24 $Y=-5.325
Rc2165	VDDHV#177	VDDHV#8441	1.345245	$MET4	$L=5.25025e-06
+ $W=2.8e-07	$X=86.68 $Y=2.15
Rc2166	VDDHV#8441	VDDHV#14119	1.176071	$MET4	$L=4.45e-06
+ $W=2.8e-07	$X=86.68 $Y=-5.325
Rc2169	VDDHV#177	VDDHV#14122	1.176071	$MET4	$L=4.45e-06
+ $W=2.8e-07	$X=88.12 $Y=-5.325
Rc2171	VDDHV#14124	VDDHV#177	1.176071	$MET4	$L=4.45e-06
+ $W=2.8e-07	$X=83.8 $Y=-19.185
Rc2176	VDDHV#177	VDDHV#14130	1.176071	$MET4	$L=4.45e-06
+ $W=2.8e-07	$X=85.24 $Y=-17.025
Rc2179	VDDHV#177	VDDHV#8459	1.345245	$MET4	$L=5.25025e-06
+ $W=2.8e-07	$X=86.68 $Y=-9.55
Rc2180	VDDHV#8459	VDDHV#14134	1.176071	$MET4	$L=4.45e-06
+ $W=2.8e-07	$X=86.68 $Y=-17.025
Rc2183	VDDHV#177	VDDHV#14137	1.176071	$MET4	$L=4.45e-06
+ $W=2.8e-07	$X=88.12 $Y=-17.025
Rc2185	OUT#14634	OUT#3	1.176071	$MET4	$L=4.45e-06
+ $W=2.8e-07	$X=94.88 $Y=1.285
Rc2186	OUT#3	OUT#8820	1.345183	$MET4	$L=5.24975e-06
+ $W=2.8e-07	$X=94.88 $Y=-5.7245
Rc2193	OUT#8820	OUT#3	1.345183	$MET4	$L=5.24975e-06
+ $W=2.8e-07	$X=93.44 $Y=-8.35
Rc2194	OUT#3	OUT#14644	1.176071	$MET4	$L=4.45e-06
+ $W=2.8e-07	$X=93.44 $Y=-0.875
Rc2195	OUT#8820	OUT#3	1.345183	$MET4	$L=5.24975e-06
+ $W=2.8e-07	$X=92 $Y=-8.35
Rc2196	OUT#3	OUT#14646	1.176071	$MET4	$L=4.45e-06
+ $W=2.8e-07	$X=92 $Y=-0.875
Rc2197	OUT#8820	OUT#3	1.345183	$MET4	$L=5.24975e-06
+ $W=2.8e-07	$X=90.56 $Y=-8.35
Rc2198	OUT#3	OUT#14648	1.176071	$MET4	$L=4.45e-06
+ $W=2.8e-07	$X=90.56 $Y=-0.875
Rc2199	OUT#14649	OUT#3	1.176071	$MET4	$L=4.45e-06
+ $W=2.8e-07	$X=94.88 $Y=-10.415
Rc2200	OUT#3	OUT#8839	1.345183	$MET4	$L=5.24975e-06
+ $W=2.8e-07	$X=94.88 $Y=-17.4245
Rc2207	OUT#8839	OUT#3	1.345183	$MET4	$L=5.24975e-06
+ $W=2.8e-07	$X=93.44 $Y=-20.05
Rc2208	OUT#3	OUT#14659	1.176071	$MET4	$L=4.45e-06
+ $W=2.8e-07	$X=93.44 $Y=-12.575
Rc2209	OUT#8839	OUT#3	1.345183	$MET4	$L=5.24975e-06
+ $W=2.8e-07	$X=92 $Y=-20.05
Rc2210	OUT#3	OUT#14661	1.176071	$MET4	$L=4.45e-06
+ $W=2.8e-07	$X=92 $Y=-12.575
Rc2211	OUT#8839	OUT#3	1.345183	$MET4	$L=5.24975e-06
+ $W=2.8e-07	$X=90.56 $Y=-20.05
Rc2212	OUT#3	OUT#14663	1.176071	$MET4	$L=4.45e-06
+ $W=2.8e-07	$X=90.56 $Y=-12.575
Rc2213	VDDHV#14139	VDDHV#177	1.176071	$MET4	$L=4.45e-06
+ $W=2.8e-07	$X=89.84 $Y=-7.485
Rc2218	VDDHV#177	VDDHV#14145	1.176071	$MET4	$L=4.45e-06
+ $W=2.8e-07	$X=91.28 $Y=-5.325
Rc2222	VDDHV#177	VDDHV#14149	1.176071	$MET4	$L=4.45e-06
+ $W=2.8e-07	$X=92.72 $Y=-5.325
Rc2225	VDDHV#177	VDDHV#14152	1.176071	$MET4	$L=4.45e-06
+ $W=2.8e-07	$X=94.16 $Y=-5.325
Rc2227	VDDHV#14154	VDDHV#177	1.176071	$MET4	$L=4.45e-06
+ $W=2.8e-07	$X=89.84 $Y=-19.185
Rc2232	VDDHV#177	VDDHV#14160	1.176071	$MET4	$L=4.45e-06
+ $W=2.8e-07	$X=91.28 $Y=-17.025
Rc2236	VDDHV#177	VDDHV#14164	1.176071	$MET4	$L=4.45e-06
+ $W=2.8e-07	$X=92.72 $Y=-17.025
Rc2239	VDDHV#177	VDDHV#14167	1.176071	$MET4	$L=4.45e-06
+ $W=2.8e-07	$X=94.16 $Y=-17.025
Rc2241	GNDHV#3749	GNDHV#224	1.176071	$MET4	$L=4.45e-06
+ $W=2.8e-07	$X=94.76 $Y=73.61
Rc2250	GNDHV#224	GNDHV#3759	1.176071	$MET4	$L=4.45e-06
+ $W=2.8e-07	$X=94.76 $Y=72.17
Rc2252	GNDHV#224	GNDHV#3761	1.176071	$MET4	$L=4.45e-06
+ $W=2.8e-07	$X=94.76 $Y=70.73
Rc2254	GNDHV#224	GNDHV#3763	1.176071	$MET4	$L=4.45e-06
+ $W=2.8e-07	$X=94.76 $Y=69.29
Rc2255	GNDHV#3764	GNDHV#222	1.176071	$MET4	$L=4.45e-06
+ $W=2.8e-07	$X=94.76 $Y=67.57
Rc2264	GNDHV#222	GNDHV#3774	1.176071	$MET4	$L=4.45e-06
+ $W=2.8e-07	$X=94.76 $Y=66.13
Rc2266	GNDHV#222	GNDHV#3776	1.176071	$MET4	$L=4.45e-06
+ $W=2.8e-07	$X=94.76 $Y=64.69
Rc2268	GNDHV#222	GNDHV#3778	1.176071	$MET4	$L=4.45e-06
+ $W=2.8e-07	$X=94.76 $Y=63.25
Rc2269	GNDHV#3779	GNDHV#220	1.176071	$MET4	$L=4.45e-06
+ $W=2.8e-07	$X=94.76 $Y=61.53
Rc2278	GNDHV#220	GNDHV#3789	1.176071	$MET4	$L=4.45e-06
+ $W=2.8e-07	$X=94.76 $Y=60.09
Rc2280	GNDHV#220	GNDHV#3791	1.176071	$MET4	$L=4.45e-06
+ $W=2.8e-07	$X=94.76 $Y=58.65
Rc2282	GNDHV#220	GNDHV#3793	1.176071	$MET4	$L=4.45e-06
+ $W=2.8e-07	$X=94.76 $Y=57.21
Rc2283	GNDHV#3794	GNDHV#218	1.176071	$MET4	$L=4.45e-06
+ $W=2.8e-07	$X=94.76 $Y=55.49
Rc2292	GNDHV#218	GNDHV#3804	1.176071	$MET4	$L=4.45e-06
+ $W=2.8e-07	$X=94.76 $Y=54.05
Rc2294	GNDHV#218	GNDHV#3806	1.176071	$MET4	$L=4.45e-06
+ $W=2.8e-07	$X=94.76 $Y=52.61
Rc2296	GNDHV#218	GNDHV#3808	1.176071	$MET4	$L=4.45e-06
+ $W=2.8e-07	$X=94.76 $Y=51.17
Rc2297	GNDHV#3809	GNDHV#216	1.176071	$MET4	$L=4.45e-06
+ $W=2.8e-07	$X=94.76 $Y=49.45
Rc2306	GNDHV#216	GNDHV#3819	1.176071	$MET4	$L=4.45e-06
+ $W=2.8e-07	$X=94.76 $Y=48.01
Rc2308	GNDHV#216	GNDHV#3821	1.176071	$MET4	$L=4.45e-06
+ $W=2.8e-07	$X=94.76 $Y=46.57
Rc2310	GNDHV#216	GNDHV#3823	1.176071	$MET4	$L=4.45e-06
+ $W=2.8e-07	$X=94.76 $Y=45.13
Rc2311	GNDHV#3824	GNDHV#214	1.176071	$MET4	$L=4.45e-06
+ $W=2.8e-07	$X=94.76 $Y=43.41
Rc2320	GNDHV#214	GNDHV#3834	1.176071	$MET4	$L=4.45e-06
+ $W=2.8e-07	$X=94.76 $Y=41.97
Rc2322	GNDHV#214	GNDHV#3836	1.176071	$MET4	$L=4.45e-06
+ $W=2.8e-07	$X=94.76 $Y=40.53
Rc2324	GNDHV#214	GNDHV#3838	1.176071	$MET4	$L=4.45e-06
+ $W=2.8e-07	$X=94.76 $Y=39.09
Rc2325	GNDHV#3839	GNDHV#212	1.176071	$MET4	$L=4.45e-06
+ $W=2.8e-07	$X=94.76 $Y=37.37
Rc2334	GNDHV#212	GNDHV#3849	1.176071	$MET4	$L=4.45e-06
+ $W=2.8e-07	$X=94.76 $Y=35.93
Rc2336	GNDHV#212	GNDHV#3851	1.176071	$MET4	$L=4.45e-06
+ $W=2.8e-07	$X=94.76 $Y=34.49
Rc2338	GNDHV#212	GNDHV#3853	1.176071	$MET4	$L=4.45e-06
+ $W=2.8e-07	$X=94.76 $Y=33.05
Rc2339	GNDHV#3854	GNDHV#210	1.176071	$MET4	$L=4.45e-06
+ $W=2.8e-07	$X=94.76 $Y=31.33
[...]
C3318	OUT#9722	VSUBHV	1.95497e-16	$X=171.0595 $Y=-20.2175
C3319	OUT#9741	VSUBHV	7.03405e-17	$X=171.3595 $Y=33.74
C3320	OUT#9760	VSUBHV	7.18826e-17	$X=171.3595 $Y=22.04
C3321	OUT#9779	VSUBHV	5.91991e-16	$X=171.3595 $Y=10.34
C3322	OUT#9798	VSUBHV	7.18826e-17	$X=177.0995 $Y=-8.5175
C3323	OUT#9817	VSUBHV	1.93954e-16	$X=177.0995 $Y=-20.2175
C3324	OUT#9836	VSUBHV	7.18826e-17	$X=177.3995 $Y=33.74
C3325	OUT#9855	VSUBHV	7.18826e-17	$X=177.3995 $Y=22.04
C3326	OUT#9874	VSUBHV	5.91991e-16	$X=177.3995 $Y=10.34
C3327	OUT#9893	VSUBHV	7.18826e-17	$X=183.1395 $Y=-8.5175
C3328	OUT#9912	VSUBHV	1.95497e-16	$X=183.1395 $Y=-20.2175
C3329	OUT#9931	VSUBHV	7.18826e-17	$X=183.4395 $Y=33.74
C3330	OUT#9950	VSUBHV	7.18826e-17	$X=183.4395 $Y=22.04
C3331	OUT#9969	VSUBHV	5.90449e-16	$X=183.4395 $Y=10.34
C3332	OUT#9988	VSUBHV	7.18826e-17	$X=189.1795 $Y=-8.5175
C3333	OUT#10007	VSUBHV	1.95497e-16	$X=189.1795 $Y=-20.2175
C3334	OUT#10026	VSUBHV	7.18826e-17	$X=189.4795 $Y=33.74
C3335	OUT#10045	VSUBHV	7.18826e-17	$X=189.4795 $Y=22.04
C3336	OUT#10064	VSUBHV	5.90449e-16	$X=189.4795 $Y=10.34
C3337	OUT#10083	VSUBHV	7.18826e-17	$X=195.219 $Y=-8.5175
C3338	OUT#10102	VSUBHV	1.95497e-16	$X=195.219 $Y=-20.2175
C3339	OUT#10121	VSUBHV	7.18826e-17	$X=195.519 $Y=33.74
C3340	OUT#10140	VSUBHV	7.18826e-17	$X=195.519 $Y=22.04
C3341	OUT#10159	VSUBHV	5.91991e-16	$X=195.519 $Y=10.34
C3342	OUT#10178	VSUBHV	7.18826e-17	$X=201.259 $Y=-8.5175
C3343	OUT#10197	VSUBHV	1.95506e-16	$X=201.259 $Y=-20.2175
C3344	OUT#10216	VSUBHV	7.18826e-17	$X=201.559 $Y=33.74
C3345	OUT#10235	VSUBHV	7.18826e-17	$X=201.559 $Y=22.04
C3346	OUT#10254	VSUBHV	5.91991e-16	$X=201.559 $Y=10.34
C3347	OUT#10273	VSUBHV	7.18826e-17	$X=207.299 $Y=-8.5175
C3348	OUT#10292	VSUBHV	1.95497e-16	$X=207.299 $Y=-20.2175
C3349	OUT#10311	VSUBHV	7.18826e-17	$X=207.599 $Y=33.74
C3350	OUT#10330	VSUBHV	7.03405e-17	$X=207.599 $Y=22.04
C3351	OUT#10349	VSUBHV	5.91991e-16	$X=207.599 $Y=10.34
C3352	OUT#10368	VSUBHV	7.18826e-17	$X=213.339 $Y=-8.5175
C3353	OUT#10387	VSUBHV	1.95497e-16	$X=213.339 $Y=-20.2175
C3354	OUT#10406	VSUBHV	7.18826e-17	$X=213.639 $Y=33.74
C3355	OUT#10425	VSUBHV	7.18826e-17	$X=213.639 $Y=22.04
C3356	OUT#10444	VSUBHV	5.90449e-16	$X=213.639 $Y=10.34
C3357	OUT#10463	VSUBHV	7.18826e-17	$X=219.379 $Y=-8.5175
C3358	OUT#10482	VSUBHV	1.95497e-16	$X=219.379 $Y=-20.2175
C3359	OUT#10501	VSUBHV	7.18826e-17	$X=219.679 $Y=33.74
C3360	OUT#10520	VSUBHV	7.18826e-17	$X=219.679 $Y=22.04
C3361	OUT#10539	VSUBHV	5.91991e-16	$X=219.679 $Y=10.34
C3362	OUT#10558	VSUBHV	7.18826e-17	$X=225.419 $Y=-8.5175
C3363	OUT#10577	VSUBHV	1.95497e-16	$X=225.419 $Y=-20.2175
C3364	OUT#10596	VSUBHV	7.18826e-17	$X=225.719 $Y=33.74
C3365	OUT#10615	VSUBHV	7.18826e-17	$X=225.719 $Y=22.04
C3366	OUT#10634	VSUBHV	5.91991e-16	$X=225.719 $Y=10.34
C3367	OUT#10653	VSUBHV	7.18826e-17	$X=231.459 $Y=-8.5175
C3368	OUT#10672	VSUBHV	1.95497e-16	$X=231.459 $Y=-20.2175
C3369	OUT#10691	VSUBHV	7.18826e-17	$X=231.759 $Y=33.74
C3370	OUT#10710	VSUBHV	7.18826e-17	$X=231.759 $Y=22.04
C3371	OUT#10729	VSUBHV	5.91991e-16	$X=231.759 $Y=10.34
C3372	OUT#10748	VSUBHV	7.18826e-17	$X=237.499 $Y=-8.5175
C3373	OUT#10767	VSUBHV	1.95497e-16	$X=237.499 $Y=-20.2175
C3374	OUT#10786	VSUBHV	7.18826e-17	$X=237.799 $Y=33.74
C3375	OUT#10805	VSUBHV	7.18826e-17	$X=237.799 $Y=22.04
C3376	OUT#10824	VSUBHV	5.91991e-16	$X=237.799 $Y=10.34
C3377	OUT#10843	VSUBHV	7.18826e-17	$X=243.5385 $Y=-8.5175
C3378	OUT#10862	VSUBHV	1.95497e-16	$X=243.5385 $Y=-20.2175
C3379	OUT#10881	VSUBHV	7.18826e-17	$X=243.8385 $Y=33.74
C3380	OUT#10900	VSUBHV	7.18826e-17	$X=243.8385 $Y=22.04
C3381	OUT#10919	VSUBHV	5.91991e-16	$X=243.8385 $Y=10.34
C3382	OUT#10938	VSUBHV	7.18826e-17	$X=249.5785 $Y=-8.5175
C3383	OUT#10957	VSUBHV	1.95497e-16	$X=249.5785 $Y=-20.2175
C3384	OUT#10976	VSUBHV	7.18826e-17	$X=249.8785 $Y=33.74
C3385	OUT#10995	VSUBHV	7.18826e-17	$X=249.8785 $Y=22.04
C3386	OUT#11014	VSUBHV	5.91991e-16	$X=249.8785 $Y=10.34
C3387	OUT#11033	VSUBHV	7.18826e-17	$X=255.6185 $Y=-8.5175
C3388	OUT#11052	VSUBHV	1.95497e-16	$X=255.6185 $Y=-20.2175
C3389	OUT#11071	VSUBHV	7.18826e-17	$X=255.9185 $Y=33.74
C3390	OUT#11090	VSUBHV	7.18826e-17	$X=255.9185 $Y=22.04
C3391	OUT#11109	VSUBHV	5.91991e-16	$X=255.9185 $Y=10.34
C3392	OUT#11128	VSUBHV	7.18826e-17	$X=261.6585 $Y=-8.5175
C3393	OUT#11147	VSUBHV	1.95497e-16	$X=261.6585 $Y=-20.2175
C3394	OUT#11166	VSUBHV	7.18826e-17	$X=261.9585 $Y=33.74
C3395	OUT#11185	VSUBHV	7.18826e-17	$X=261.9585 $Y=22.04
C3396	OUT#11204	VSUBHV	5.91991e-16	$X=261.9585 $Y=10.34
C3397	OUT#11223	VSUBHV	7.18826e-17	$X=267.6985 $Y=-8.5175
C3398	OUT#11242	VSUBHV	1.95497e-16	$X=267.6985 $Y=-20.2175
C3399	OUT#11278	VSUBHV	7.03405e-17	$X=267.9985 $Y=33.74
C3400	OUT#11297	VSUBHV	7.18826e-17	$X=267.9985 $Y=22.04
C3401	OUT#11316	VSUBHV	5.91991e-16	$X=267.9985 $Y=10.34
C3402	OUT#11335	VSUBHV	7.18826e-17	$X=273.7385 $Y=-8.5175
C3403	OUT#11354	VSUBHV	1.95497e-16	$X=273.7385 $Y=-20.2175
C3404	OUT#11373	VSUBHV	7.18826e-17	$X=274.0385 $Y=33.74
C3405	OUT#11392	VSUBHV	7.18826e-17	$X=274.0385 $Y=22.04
C3406	OUT#11411	VSUBHV	2.97606e-16	$X=274.0385 $Y=10.34
C3407	OUT#11430	VSUBHV	7.18826e-17	$X=279.7785 $Y=-8.5175
C3408	OUT#11449	VSUBHV	1.95497e-16	$X=279.7785 $Y=-20.2175
C3409	OUT#11468	VSUBHV	7.18826e-17	$X=280.0785 $Y=33.74
C3410	OUT#11487	VSUBHV	7.18826e-17	$X=280.0785 $Y=22.04
C3411	OUT#11506	VSUBHV	2.97606e-16	$X=280.0785 $Y=10.34
C3412	OUT#11525	VSUBHV	7.18826e-17	$X=285.8185 $Y=-8.5175
C3413	OUT#11544	VSUBHV	1.95497e-16	$X=285.8185 $Y=-20.2175
C3414	OUT#11563	VSUBHV	7.18826e-17	$X=286.1185 $Y=33.74
C3415	OUT#11582	VSUBHV	7.18826e-17	$X=286.1185 $Y=22.04
C3416	OUT#11601	VSUBHV	2.97606e-16	$X=286.1185 $Y=10.34
C3417	OUT#11620	VSUBHV	7.18826e-17	$X=291.858 $Y=-8.5175
C3418	OUT#11639	VSUBHV	1.95497e-16	$X=291.858 $Y=-20.2175
C3419	OUT#11658	VSUBHV	7.18826e-17	$X=292.158 $Y=33.74
C3420	OUT#11677	VSUBHV	7.18826e-17	$X=292.158 $Y=22.04
C3421	OUT#11696	VSUBHV	2.97606e-16	$X=292.158 $Y=10.34
C3422	OUT#11715	VSUBHV	7.18826e-17	$X=297.898 $Y=-8.5175
C3423	OUT#11734	VSUBHV	1.95497e-16	$X=297.898 $Y=-20.2175
C3424	OUT#11753	VSUBHV	7.03405e-17	$X=298.198 $Y=33.74
C3425	OUT#11772	VSUBHV	7.18826e-17	$X=298.198 $Y=22.04
C3426	OUT#11791	VSUBHV	2.97606e-16	$X=298.198 $Y=10.34
C3427	OUT#11810	VSUBHV	7.18826e-17	$X=303.938 $Y=-8.5175
C3428	OUT#11829	VSUBHV	1.95497e-16	$X=303.938 $Y=-20.2175
C3429	OUT#11848	VSUBHV	7.18826e-17	$X=304.238 $Y=33.74
C3430	OUT#11867	VSUBHV	7.18826e-17	$X=304.238 $Y=22.04
C3431	OUT#11886	VSUBHV	2.97606e-16	$X=304.238 $Y=10.34
C3432	OUT#11905	VSUBHV	7.18826e-17	$X=309.978 $Y=-8.5175
C3433	OUT#11924	VSUBHV	1.95497e-16	$X=309.978 $Y=-20.2175
C3434	OUT#11943	VSUBHV	7.18826e-17	$X=310.278 $Y=33.74
C3435	OUT#11962	VSUBHV	7.03405e-17	$X=310.278 $Y=22.04
C3436	OUT#11981	VSUBHV	2.97606e-16	$X=310.278 $Y=10.34
C3437	OUT#12000	VSUBHV	7.18826e-17	$X=316.018 $Y=-8.5175
C3438	OUT#12019	VSUBHV	1.95497e-16	$X=316.018 $Y=-20.2175
C3439	OUT#12038	VSUBHV	7.18826e-17	$X=316.318 $Y=33.74
C3440	OUT#12057	VSUBHV	7.18826e-17	$X=316.318 $Y=22.04
C3441	OUT#12076	VSUBHV	2.97606e-16	$X=316.318 $Y=10.34
C3442	OUT#12095	VSUBHV	7.18826e-17	$X=322.058 $Y=-8.5175
C3443	OUT#12114	VSUBHV	1.95497e-16	$X=322.058 $Y=-20.2175
C3444	OUT#12133	VSUBHV	7.18826e-17	$X=322.358 $Y=33.74
C3445	OUT#12152	VSUBHV	7.18826e-17	$X=322.358 $Y=22.04
C3446	OUT#12171	VSUBHV	2.97606e-16	$X=322.358 $Y=10.34
C3447	OUT#12190	VSUBHV	7.18826e-17	$X=328.098 $Y=-8.5175
C3448	OUT#12209	VSUBHV	1.95497e-16	$X=328.098 $Y=-20.2175
C3449	OUT#12228	VSUBHV	7.03405e-17	$X=328.398 $Y=33.74
C3450	OUT#12247	VSUBHV	7.18826e-17	$X=328.398 $Y=22.04
C3451	OUT#12266	VSUBHV	2.97606e-16	$X=328.398 $Y=10.34
C3452	OUT#12285	VSUBHV	7.18826e-17	$X=334.138 $Y=-8.5175
C3453	OUT#12304	VSUBHV	1.95497e-16	$X=334.138 $Y=-20.2175
C3454	OUT#12323	VSUBHV	7.18826e-17	$X=334.438 $Y=33.74
C3455	OUT#12342	VSUBHV	7.18826e-17	$X=334.438 $Y=22.04
C3456	OUT#12361	VSUBHV	2.97606e-16	$X=334.438 $Y=10.34
C3457	OUT#12380	VSUBHV	7.18826e-17	$X=340.1775 $Y=-8.5175
C3458	OUT#12399	VSUBHV	1.95497e-16	$X=340.1775 $Y=-20.2175
C3459	OUT#12418	VSUBHV	7.18826e-17	$X=340.4775 $Y=33.74
C3460	OUT#12437	VSUBHV	7.18826e-17	$X=340.4775 $Y=22.04
C3461	OUT#12456	VSUBHV	2.97606e-16	$X=340.4775 $Y=10.34
C3462	OUT#12475	VSUBHV	7.18826e-17	$X=346.2175 $Y=-8.5175
C3463	OUT#12494	VSUBHV	1.95497e-16	$X=346.2175 $Y=-20.2175
C3464	OUT#12513	VSUBHV	7.18826e-17	$X=346.5175 $Y=33.74
C3465	OUT#12532	VSUBHV	7.18826e-17	$X=346.5175 $Y=22.04
C3466	OUT#12551	VSUBHV	2.97606e-16	$X=346.5175 $Y=10.34
C3467	OUT#12570	VSUBHV	7.18826e-17	$X=352.2575 $Y=-8.5175
C3468	OUT#12589	VSUBHV	1.95497e-16	$X=352.2575 $Y=-20.2175
C3469	OUT#12608	VSUBHV	7.18826e-17	$X=352.5575 $Y=33.74
C3470	OUT#12627	VSUBHV	7.18826e-17	$X=352.5575 $Y=22.04
C3471	OUT#12646	VSUBHV	2.97479e-16	$X=352.5575 $Y=10.34
C3472	OUT#12665	VSUBHV	7.03405e-17	$X=358.2975 $Y=-8.5175
C3473	OUT#12684	VSUBHV	1.95497e-16	$X=358.2975 $Y=-20.2175
C3474	OUT#12703	VSUBHV	7.18826e-17	$X=358.5975 $Y=33.74
C3475	OUT#12722	VSUBHV	7.18826e-17	$X=358.5975 $Y=22.04
C3476	OUT#12741	VSUBHV	2.97606e-16	$X=358.5975 $Y=10.34
C3477	OUT#12760	VSUBHV	7.18826e-17	$X=364.3375 $Y=-8.5175
C3478	OUT#12779	VSUBHV	1.95497e-16	$X=364.3375 $Y=-20.2175
C3479	OUT#12798	VSUBHV	7.18826e-17	$X=364.6375 $Y=33.74
C3480	OUT#12817	VSUBHV	7.18826e-17	$X=364.6375 $Y=22.04
C3481	OUT#12836	VSUBHV	2.97606e-16	$X=364.6375 $Y=10.34
C3482	OUT#12855	VSUBHV	7.18826e-17	$X=370.3775 $Y=-8.5175
C3483	OUT#12874	VSUBHV	1.95497e-16	$X=370.3775 $Y=-20.2175
C3484	OUT#12893	VSUBHV	7.18826e-17	$X=370.6775 $Y=33.74
C3485	OUT#12912	VSUBHV	7.18826e-17	$X=370.6775 $Y=22.04
C3486	OUT#12931	VSUBHV	2.97606e-16	$X=370.6775 $Y=10.34
C3487	OUT#12950	VSUBHV	7.03405e-17	$X=376.4175 $Y=-8.5175
C3488	OUT#12969	VSUBHV	1.95497e-16	$X=376.4175 $Y=-20.2175
C3489	OUT#12988	VSUBHV	7.03405e-17	$X=376.7175 $Y=33.74
C3490	OUT#13007	VSUBHV	7.18826e-17	$X=376.7175 $Y=22.04
C3491	OUT#13026	VSUBHV	2.97606e-16	$X=376.7175 $Y=10.34
C3492	OUT#13045	VSUBHV	7.18826e-17	$X=382.4575 $Y=-8.5175
C3493	OUT#13064	VSUBHV	1.95497e-16	$X=382.4575 $Y=-20.2175
C3494	OUT#13083	VSUBHV	7.18826e-17	$X=382.7575 $Y=33.74
C3495	OUT#13102	VSUBHV	7.18826e-17	$X=382.7575 $Y=22.04
C3496	OUT#13121	VSUBHV	2.97606e-16	$X=382.7575 $Y=10.34
C3497	OUT#13140	VSUBHV	7.18826e-17	$X=388.497 $Y=-8.5175
C3498	OUT#13159	VSUBHV	1.95497e-16	$X=388.497 $Y=-20.2175
C3499	OUT#13178	VSUBHV	7.18826e-17	$X=388.797 $Y=33.74
C3500	OUT#13197	VSUBHV	7.18826e-17	$X=388.797 $Y=22.04
C3501	OUT#13216	VSUBHV	2.97606e-16	$X=388.797 $Y=10.34
C3502	OUT#13235	VSUBHV	7.18826e-17	$X=394.537 $Y=-8.5175
C3503	OUT#13254	VSUBHV	1.95497e-16	$X=394.537 $Y=-20.2175
C3504	OUT#13273	VSUBHV	7.18826e-17	$X=394.837 $Y=33.74
C3505	OUT#13292	VSUBHV	7.18826e-17	$X=394.837 $Y=22.04
C3506	OUT#13311	VSUBHV	2.97606e-16	$X=394.837 $Y=10.34
C3507	OUT#13330	VSUBHV	7.18826e-17	$X=400.577 $Y=-8.5175
C3508	OUT#13349	VSUBHV	1.95497e-16	$X=400.577 $Y=-20.2175
C3509	OUT#13368	VSUBHV	7.18826e-17	$X=400.877 $Y=33.74
C3510	OUT#13387	VSUBHV	7.18826e-17	$X=400.877 $Y=22.04
C3511	OUT#13406	VSUBHV	2.96064e-16	$X=400.877 $Y=10.34
C3512	OUT#13687	VSUBHV	7.18826e-17	$X=406.617 $Y=-8.5175
C3513	OUT#13706	VSUBHV	1.95497e-16	$X=406.617 $Y=-20.2175
C3514	OUT#13725	VSUBHV	7.18826e-17	$X=406.917 $Y=33.74
C3515	OUT#13744	VSUBHV	7.18826e-17	$X=406.917 $Y=22.04
C3516	OUT#13763	VSUBHV	2.97606e-16	$X=406.917 $Y=10.34
C3517	OUT#13782	VSUBHV	7.03405e-17	$X=412.657 $Y=-8.5175
C3518	OUT#13801	VSUBHV	1.95497e-16	$X=412.657 $Y=-20.2175
C3519	OUT#13820	VSUBHV	7.18826e-17	$X=412.957 $Y=33.74
C3520	OUT#13839	VSUBHV	7.18826e-17	$X=412.957 $Y=22.04
C3521	OUT#13858	VSUBHV	2.97606e-16	$X=412.957 $Y=10.34
C3522	OUT#13877	VSUBHV	7.18826e-17	$X=418.697 $Y=-8.5175
C3523	OUT#13896	VSUBHV	1.95497e-16	$X=418.697 $Y=-20.2175
C3524	OUT#13915	VSUBHV	7.18826e-17	$X=418.997 $Y=33.74
C3525	OUT#13934	VSUBHV	7.18826e-17	$X=418.997 $Y=22.04
C3526	OUT#13953	VSUBHV	2.97606e-16	$X=418.997 $Y=10.34
C3527	OUT#13972	VSUBHV	1.21081e-16	$X=424.737 $Y=-8.5175
C3528	OUT#13969	VSUBHV	6.54345e-18	$X=427.079 $Y=1.37
C3529	OUT#13991	VSUBHV	2.44774e-16	$X=424.737 $Y=-20.2175
C3530	OUT#13988	VSUBHV	6.54345e-18	$X=427.079 $Y=-10.329
C3531	OUT#14010	VSUBHV	1.20438e-16	$X=425.037 $Y=33.74
C3532	OUT#14007	VSUBHV	8.89153e-18	$X=427.379 $Y=43.63
C3533	OUT#14029	VSUBHV	1.20438e-16	$X=425.037 $Y=22.04
C3534	OUT#14026	VSUBHV	8.89153e-18	$X=427.379 $Y=31.93
C3535	OUT#14048	VSUBHV	4.80372e-16	$X=425.037 $Y=10.34
C3536	OUT#14045	VSUBHV	8.89153e-18	$X=427.379 $Y=20.23
C3537	DOWN#1	VSUBHV	5.63094e-17	$X=49.7295 $Y=89.007
C3538	DOWN#3	VSUBHV	7.78203e-17	$X=49.7295 $Y=88.3915
C3539	DOWN#5	VSUBHV	8.68262e-17	$X=49.7545 $Y=84.8945
C3540	DOWN#7	VSUBHV	8.24388e-17	$X=49.7545 $Y=85.45
C3541	UP#1	VSUBHV	6.20676e-17	$X=53.0495 $Y=89.007
C3542	UP#3	VSUBHV	8.10649e-17	$X=53.0495 $Y=88.3915
C3543	UP#5	VSUBHV	8.23436e-17	$X=53.0995 $Y=84.8845
C3544	UP#7	VSUBHV	6.42665e-17	$X=53.0995 $Y=85.44
C3545	net5#3	VSUBHV	7.93962e-17	$X=56.3695 $Y=88.3915
C3546	net5#5	VSUBHV	6.90197e-17	$X=56.4195 $Y=84.8845
C3547	net5#7	VSUBHV	6.07585e-17	$X=56.4195 $Y=85.44
C3548	DOWNN#7	VSUBHV	2.63337e-16	$X=60.5545 $Y=111.2195
C3549	DOWNN#11	VSUBHV	2.12967e-16	$X=62.2595 $Y=111.7265
C3550	DOWNN#4	VSUBHV	2.62169e-16	$X=60.5545 $Y=130.0895
C3551	DOWNN#10	VSUBHV	5.1771e-17	$X=61.3465 $Y=111.2195
C3552	DOWNN#16	VSUBHV	2.50918e-16	$X=61.7195 $Y=130.062
C3553	DOWNN#5	VSUBHV	1.29119e-15	$X=59.731 $Y=124.79
C3554	DOWNN#6	VSUBHV	1.29275e-15	$X=59.731 $Y=116.52
C3555	UPN#7	VSUBHV	2.65946e-16	$X=100.5795 $Y=111.2195
C3556	UPN#11	VSUBHV	2.10263e-16	$X=102.2845 $Y=111.7265
C3557	UPN#4	VSUBHV	2.59559e-16	$X=100.5795 $Y=130.0895
C3558	UPN#10	VSUBHV	4.54115e-17	$X=101.3715 $Y=111.2195
C3559	UPN#16	VSUBHV	2.50918e-16	$X=101.7445 $Y=130.062
C3560	UPN#5	VSUBHV	1.29119e-15	$X=99.7555 $Y=124.79
C3561	UPN#6	VSUBHV	1.29275e-15	$X=99.7555 $Y=116.52
C3562	GATEN#11	VSUBHV	1.93216e-16	$X=267.529 $Y=79.6095
C3563	GATEN#15	VSUBHV	1.99168e-16	$X=269.234 $Y=80.1165
C3564	GATEN#8	VSUBHV	1.93379e-16	$X=267.529 $Y=113.4795
C3565	GATEN#14	VSUBHV	6.80536e-17	$X=268.321 $Y=79.6095
C3566	GATEN#5	VSUBHV	2.23599e-17	$X=268.1545 $Y=113.4195
C3567	GATEN#20	VSUBHV	1.81829e-16	$X=268.694 $Y=113.452
C3568	GATEN#9	VSUBHV	1.35312e-17	$X=266.7025 $Y=104.431
C3569	GATEN#10	VSUBHV	1.35321e-17	$X=266.7025 $Y=88.661
C3570	GATEN#27	VSUBHV	1.25474e-16	$X=279.429 $Y=79.6095
C3571	GATEN#31	VSUBHV	2.01039e-16	$X=281.134 $Y=80.1165
C3572	GATEN#24	VSUBHV	1.87181e-16	$X=279.429 $Y=113.4795
C3573	GATEN#30	VSUBHV	6.77678e-17	$X=280.221 $Y=79.6095
C3574	GATEN#21	VSUBHV	2.23599e-17	$X=280.0545 $Y=113.4195
C3575	GATEN#36	VSUBHV	1.82917e-16	$X=280.594 $Y=113.452
C3576	GATEN#25	VSUBHV	1.35312e-17	$X=278.602 $Y=104.431
C3577	GATEN#26	VSUBHV	1.35321e-17	$X=278.602 $Y=88.661
C3578	GATEN#43	VSUBHV	1.86706e-16	$X=291.329 $Y=79.6095
C3579	GATEN#47	VSUBHV	1.99168e-16	$X=293.034 $Y=80.1165
C3580	GATEN#40	VSUBHV	1.87181e-16	$X=291.329 $Y=113.4795
C3581	GATEN#46	VSUBHV	6.80536e-17	$X=292.121 $Y=79.6095
C3582	GATEN#37	VSUBHV	2.23599e-17	$X=291.9545 $Y=113.4195
C3583	GATEN#52	VSUBHV	1.81829e-16	$X=292.494 $Y=113.452
C3584	GATEN#41	VSUBHV	1.35312e-17	$X=290.502 $Y=104.431
C3585	GATEN#42	VSUBHV	1.35321e-17	$X=290.502 $Y=88.661
C3586	GATEP#14	VSUBHV	2.67021e-16	$X=303.199 $Y=148.6995
C3587	GATEP#21	VSUBHV	2.66846e-16	$X=303.199 $Y=179.989
C3588	GATEP#12	VSUBHV	3.69599e-16	$X=303.199 $Y=150.0395
C3589	GATEN#59	VSUBHV	1.25474e-16	$X=303.229 $Y=79.6095
C3590	GATEN#63	VSUBHV	2.01039e-16	$X=304.934 $Y=80.1165
C3591	GATEN#56	VSUBHV	1.2511e-16	$X=303.229 $Y=113.4795
C3592	GATEN#62	VSUBHV	6.77678e-17	$X=304.021 $Y=79.6095
C3593	GATEN#53	VSUBHV	2.23599e-17	$X=303.8545 $Y=113.4195
C3594	GATEN#68	VSUBHV	1.82917e-16	$X=304.394 $Y=113.452
C3595	GATEN#57	VSUBHV	1.35312e-17	$X=302.4015 $Y=104.431
C3596	GATEN#58	VSUBHV	1.35321e-17	$X=302.4015 $Y=88.661
C3597	GATEP#29	VSUBHV	8.49229e-17	$X=311.999 $Y=150.0395
C3598	GATEN#75	VSUBHV	1.86706e-16	$X=315.129 $Y=79.6095
C3599	GATEN#79	VSUBHV	1.99168e-16	$X=316.834 $Y=80.1165
C3600	GATEN#72	VSUBHV	1.87181e-16	$X=315.129 $Y=113.4795
C3601	GATEN#78	VSUBHV	6.80536e-17	$X=315.921 $Y=79.6095
C3602	GATEN#69	VSUBHV	2.23599e-17	$X=315.7545 $Y=113.4195
C3603	GATEN#84	VSUBHV	1.81829e-16	$X=316.294 $Y=113.452
C3604	GATEN#73	VSUBHV	1.35312e-17	$X=314.301 $Y=104.431
C3605	GATEN#74	VSUBHV	1.35321e-17	$X=314.301 $Y=88.661
C3606	GATEP#46	VSUBHV	3.6989e-16	$X=320.799 $Y=150.0395
C3607	GATEN#91	VSUBHV	1.25474e-16	$X=327.029 $Y=79.6095
C3608	GATEN#95	VSUBHV	1.99168e-16	$X=328.734 $Y=80.1165
C3609	GATEN#88	VSUBHV	1.2511e-16	$X=327.029 $Y=113.4795
C3610	GATEN#94	VSUBHV	6.60539e-17	$X=327.821 $Y=79.6095
C3611	GATEN#85	VSUBHV	2.23599e-17	$X=327.6545 $Y=113.4195
C3612	GATEN#100	VSUBHV	1.82917e-16	$X=328.194 $Y=113.452
C3613	GATEN#89	VSUBHV	1.35312e-17	$X=326.201 $Y=104.431
C3614	GATEN#90	VSUBHV	1.35321e-17	$X=326.201 $Y=88.661
C3615	GATEP#63	VSUBHV	3.6989e-16	$X=329.599 $Y=150.0395
C3616	GATEP#80	VSUBHV	3.6989e-16	$X=338.399 $Y=150.0395
C3617	GATEN#107	VSUBHV	1.85619e-16	$X=338.929 $Y=79.6095
C3618	GATEN#111	VSUBHV	2.02017e-16	$X=340.634 $Y=80.1165
C3619	GATEN#104	VSUBHV	1.2511e-16	$X=338.929 $Y=113.4795
C3620	GATEN#110	VSUBHV	6.77678e-17	$X=339.721 $Y=79.6095
C3621	GATEN#101	VSUBHV	2.23599e-17	$X=339.5545 $Y=113.4195
C3622	GATEN#116	VSUBHV	1.81829e-16	$X=340.094 $Y=113.452
C3623	GATEN#105	VSUBHV	1.35312e-17	$X=338.1005 $Y=104.431
C3624	GATEN#106	VSUBHV	1.35321e-17	$X=338.1005 $Y=88.661
C3625	GATEP#97	VSUBHV	3.6989e-16	$X=347.199 $Y=150.0395
C3626	GATEN#123	VSUBHV	1.25474e-16	$X=350.829 $Y=79.6095
C3627	GATEN#127	VSUBHV	2.022e-16	$X=352.534 $Y=80.1165
C3628	GATEN#120	VSUBHV	1.2511e-16	$X=350.829 $Y=113.4795
C3629	GATEN#126	VSUBHV	6.77678e-17	$X=351.621 $Y=79.6095
C3630	GATEN#117	VSUBHV	2.23599e-17	$X=351.4545 $Y=113.4195
C3631	GATEN#132	VSUBHV	1.81829e-16	$X=351.994 $Y=113.452
C3632	GATEN#121	VSUBHV	1.35312e-17	$X=350.0005 $Y=104.431
C3633	GATEN#122	VSUBHV	1.35321e-17	$X=350.0005 $Y=88.661
C3634	GATEP#114	VSUBHV	3.6989e-16	$X=355.999 $Y=150.0395
C3635	GATEN#139	VSUBHV	1.86706e-16	$X=362.729 $Y=79.6095
C3636	GATEN#143	VSUBHV	2.00329e-16	$X=364.434 $Y=80.1165
C3637	GATEN#136	VSUBHV	1.87181e-16	$X=362.729 $Y=113.4795
C3638	GATEN#142	VSUBHV	6.80536e-17	$X=363.521 $Y=79.6095
C3639	GATEN#133	VSUBHV	2.23599e-17	$X=363.3545 $Y=113.4195
C3640	GATEN#148	VSUBHV	1.81829e-16	$X=363.894 $Y=113.452
C3641	GATEN#137	VSUBHV	1.35312e-17	$X=361.9 $Y=104.431
C3642	GATEN#138	VSUBHV	1.35321e-17	$X=361.9 $Y=88.661
C3643	GATEP#131	VSUBHV	8.49229e-17	$X=364.799 $Y=150.0395
C3644	GATEP#148	VSUBHV	3.6989e-16	$X=373.599 $Y=150.0395
C3645	GATEN#155	VSUBHV	1.85619e-16	$X=374.629 $Y=79.6095
C3646	GATEN#159	VSUBHV	2.022e-16	$X=376.334 $Y=80.1165
C3647	GATEN#152	VSUBHV	1.2511e-16	$X=374.629 $Y=113.4795
C3648	GATEN#158	VSUBHV	6.77678e-17	$X=375.421 $Y=79.6095
C3649	GATEN#149	VSUBHV	2.23599e-17	$X=375.2545 $Y=113.4195
C3650	GATEN#164	VSUBHV	1.82917e-16	$X=375.794 $Y=113.452
C3651	GATEN#153	VSUBHV	1.35312e-17	$X=373.7995 $Y=104.431
C3652	GATEN#154	VSUBHV	1.35321e-17	$X=373.7995 $Y=88.661
C3653	GATEP#165	VSUBHV	8.49229e-17	$X=382.399 $Y=150.0395
C3654	GATEN#171	VSUBHV	1.86706e-16	$X=386.529 $Y=79.6095
C3655	GATEN#175	VSUBHV	2.00329e-16	$X=388.234 $Y=80.1165
C3656	GATEN#168	VSUBHV	1.87181e-16	$X=386.529 $Y=113.4795
C3657	GATEN#174	VSUBHV	6.80536e-17	$X=387.321 $Y=79.6095
C3658	GATEN#165	VSUBHV	2.23599e-17	$X=387.1545 $Y=113.4195
C3659	GATEN#180	VSUBHV	1.81829e-16	$X=387.694 $Y=113.452
C3660	GATEN#169	VSUBHV	1.35312e-17	$X=385.6995 $Y=104.431
C3661	GATEN#170	VSUBHV	1.35321e-17	$X=385.6995 $Y=88.661
C3662	GATEP#182	VSUBHV	8.49229e-17	$X=391.199 $Y=150.0395
C3663	GATEN#187	VSUBHV	1.26562e-16	$X=398.429 $Y=79.6095
C3664	GATEN#191	VSUBHV	1.61265e-16	$X=400.134 $Y=80.1165
C3665	GATEN#184	VSUBHV	1.2511e-16	$X=398.429 $Y=113.4795
C3666	GATEN#190	VSUBHV	7.63546e-17	$X=399.221 $Y=79.6095
C3667	GATEN#181	VSUBHV	2.23599e-17	$X=399.0545 $Y=113.4195
C3668	GATEN#196	VSUBHV	1.47427e-16	$X=399.594 $Y=113.452
C3669	GATEN#185	VSUBHV	1.35312e-17	$X=397.599 $Y=104.431
C3670	GATEN#186	VSUBHV	1.35321e-17	$X=397.599 $Y=88.661
C3671	GATEP#199	VSUBHV	3.69599e-16	$X=399.999 $Y=150.0395
*
*
.ENDS hvswitch5
*
